<?xml version="1.0" encoding="UTF-8"?>

<!-- generated on 2022-07-14 11:40:28 by Eclipse SUMO duarouter Version 1.12.0
<configuration xmlns:xsi="http://www.w3.org/2001/XMLSchema-instance" xsi:noNamespaceSchemaLocation="http://sumo.dlr.de/xsd/duarouterConfiguration.xsd">

    <input>
        <net-file value="C:\Users\Danton%20Moura\Sumo\2022-07-14-11-34-33\osm.net.xml"/>
        <route-files value="C:\Users\Danton%20Moura\Sumo\2022-07-14-11-34-33\osm.bicycle.trips.xml"/>
    </input>

    <output>
        <output-file value="C:\Users\Danton%20Moura\Sumo\2022-07-14-11-34-33\osm.bicycle.trips.xml.tmp"/>
        <write-trips value="true"/>
    </output>

    <time>
        <begin value="0"/>
        <end value="3600"/>
    </time>

    <report>
        <no-warnings value="true"/>
        <ignore-errors value="true"/>
        <no-step-log value="true"/>
    </report>

</configuration>
-->

<routes xmlns:xsi="http://www.w3.org/2001/XMLSchema-instance" xsi:noNamespaceSchemaLocation="http://sumo.dlr.de/xsd/routes_file.xsd">
    <vType id="bike_bicycle" vClass="bicycle"/>
    <trip id="bike0" type="bike_bicycle" depart="0.00" departLane="best" from="28620212" to="-189314806#1"/>
    <trip id="bike1" type="bike_bicycle" depart="0.44" departLane="best" departSpeed="max" from="-453395832#1" to="-38559447#1"/>
    <trip id="bike2" type="bike_bicycle" depart="0.88" departLane="best" from="37796659#9" to="329607128"/>
    <trip id="bike3" type="bike_bicycle" depart="1.32" departLane="best" from="563882892#5" to="-219064581#0"/>
    <trip id="bike4" type="bike_bicycle" depart="1.76" departLane="best" departSpeed="max" from="108650755" to="-189368022#2"/>
    <trip id="bike5" type="bike_bicycle" depart="2.20" departLane="best" from="-37915925#1" to="217350252#3"/>
    <trip id="bike6" type="bike_bicycle" depart="2.64" departLane="best" from="-189314815#4" to="-37911118"/>
    <trip id="bike7" type="bike_bicycle" depart="3.08" departLane="best" from="28620935#0" to="219484108#5"/>
    <trip id="bike8" type="bike_bicycle" depart="3.52" departLane="best" from="-37915946#1" to="244685952"/>
    <trip id="bike9" type="bike_bicycle" depart="3.96" departLane="best" departSpeed="max" from="450281042" to="-108643681#1"/>
    <trip id="bike10" type="bike_bicycle" depart="4.40" departLane="best" departSpeed="max" from="450278958" to="356396703"/>
    <trip id="bike11" type="bike_bicycle" depart="4.84" departLane="best" departSpeed="max" from="-907721062#2" to="-288143114#2"/>
    <trip id="bike12" type="bike_bicycle" depart="5.28" departLane="best" from="927120515#1" to="-913205526"/>
    <trip id="bike13" type="bike_bicycle" depart="5.72" departLane="best" from="-218726130#0" to="-219482025#5"/>
    <trip id="bike14" type="bike_bicycle" depart="6.16" departLane="best" from="470020253" to="27103340#0"/>
    <trip id="bike15" type="bike_bicycle" depart="6.60" departLane="best" departSpeed="max" from="450281018" to="37911111#4"/>
    <trip id="bike16" type="bike_bicycle" depart="7.04" departLane="best" from="217352309#2" to="945062983"/>
    <trip id="bike17" type="bike_bicycle" depart="7.48" departLane="best" from="-942089592#0" to="222686994#8"/>
    <trip id="bike18" type="bike_bicycle" depart="7.92" departLane="best" departSpeed="max" from="451610052" to="28545502"/>
    <trip id="bike19" type="bike_bicycle" depart="8.36" departLane="best" from="48151889#0" to="235557839#1"/>
    <trip id="bike20" type="bike_bicycle" depart="8.80" departLane="best" from="356396282" to="-203432801#1"/>
    <trip id="bike21" type="bike_bicycle" depart="9.24" departLane="best" from="-38129052#1" to="-485351177#1"/>
    <trip id="bike22" type="bike_bicycle" depart="9.68" departLane="best" from="-217350311#1" to="-425863177#2"/>
    <trip id="bike23" type="bike_bicycle" depart="10.12" departLane="best" from="-219477658#1" to="-453410343"/>
    <trip id="bike24" type="bike_bicycle" depart="10.56" departLane="best" from="285776276#1" to="-942089590#0"/>
    <trip id="bike25" type="bike_bicycle" depart="11.00" departLane="best" from="-938653019#0" to="-38133068#1"/>
    <trip id="bike26" type="bike_bicycle" depart="11.44" departLane="best" departSpeed="max" from="-450424494" to="927233835#1"/>
    <trip id="bike27" type="bike_bicycle" depart="11.88" departLane="best" from="28620876#1" to="27318421#1"/>
    <trip id="bike28" type="bike_bicycle" depart="12.32" departLane="best" from="-288143113#1" to="37911106#2"/>
    <trip id="bike29" type="bike_bicycle" depart="12.76" departLane="best" departSpeed="max" from="-28620920" to="-973918084"/>
    <trip id="bike30" type="bike_bicycle" depart="13.20" departLane="best" from="946398123#16" to="287533409#0"/>
    <trip id="bike31" type="bike_bicycle" depart="13.64" departLane="best" departSpeed="max" from="453497725" to="446556744#2"/>
    <trip id="bike32" type="bike_bicycle" depart="14.08" departLane="best" from="-38133079#0" to="-191322062#3"/>
    <trip id="bike33" type="bike_bicycle" depart="14.52" departLane="best" from="-606792772#0" to="-450501993"/>
    <trip id="bike34" type="bike_bicycle" depart="14.96" departLane="best" from="-37795690#0" to="927765449"/>
    <trip id="bike35" type="bike_bicycle" depart="15.40" departLane="best" from="561899145#0" to="-649569790"/>
    <trip id="bike36" type="bike_bicycle" depart="15.84" departLane="best" from="287533429#2" to="112422886"/>
    <trip id="bike37" type="bike_bicycle" depart="16.28" departLane="best" from="826365216" to="192163608"/>
    <trip id="bike38" type="bike_bicycle" depart="16.72" departLane="best" departSpeed="max" from="-450359009" to="-450272539#0"/>
    <trip id="bike39" type="bike_bicycle" depart="17.16" departLane="best" from="219482020#5" to="-450429990#4"/>
    <trip id="bike40" type="bike_bicycle" depart="17.60" departLane="best" departSpeed="max" from="229807939#0" to="907205003#1"/>
    <trip id="bike41" type="bike_bicycle" depart="18.04" departLane="best" departSpeed="max" from="-972928204" to="-38438991#0"/>
    <trip id="bike42" type="bike_bicycle" depart="18.49" departLane="best" from="97503972#1" to="217350325#0"/>
    <trip id="bike43" type="bike_bicycle" depart="18.93" departLane="best" from="-218549561#0" to="-203432814"/>
    <trip id="bike44" type="bike_bicycle" depart="19.37" departLane="best" from="-219673759#6" to="28620340"/>
    <trip id="bike45" type="bike_bicycle" depart="19.81" departLane="best" departSpeed="max" from="449020594#0" to="172869510#1"/>
    <trip id="bike46" type="bike_bicycle" depart="20.25" departLane="best" departSpeed="max" from="-215261218#2" to="-976250234"/>
    <trip id="bike47" type="bike_bicycle" depart="20.69" departLane="best" departSpeed="max" from="973585322" to="219150317"/>
    <trip id="bike48" type="bike_bicycle" depart="21.13" departLane="best" from="938299491#1" to="563882844"/>
    <trip id="bike49" type="bike_bicycle" depart="21.57" departLane="best" from="-127088642#3" to="37795650#0"/>
    <trip id="bike50" type="bike_bicycle" depart="22.01" departLane="best" from="326538537" to="219477655#1"/>
    <trip id="bike51" type="bike_bicycle" depart="22.45" departLane="best" from="-450424493" to="287533429#1"/>
    <trip id="bike52" type="bike_bicycle" depart="22.89" departLane="best" from="-220188331#1" to="189314819#5"/>
    <trip id="bike53" type="bike_bicycle" depart="23.33" departLane="best" from="184734472#3" to="940302723#2"/>
    <trip id="bike54" type="bike_bicycle" depart="23.77" departLane="best" from="561763669#2" to="-450429999#0"/>
    <trip id="bike55" type="bike_bicycle" depart="24.21" departLane="best" from="206543791#1" to="-358541120#3"/>
    <trip id="bike56" type="bike_bicycle" depart="24.65" departLane="best" from="772557224#4" to="606416582#0"/>
    <trip id="bike57" type="bike_bicycle" depart="25.09" departLane="best" from="-561763669#1" to="28675648#1"/>
    <trip id="bike59" type="bike_bicycle" depart="25.97" departLane="best" from="38435340" to="219482008#13"/>
    <trip id="bike60" type="bike_bicycle" depart="26.41" departLane="best" departSpeed="max" from="424447817#0" to="219276440#4"/>
    <trip id="bike61" type="bike_bicycle" depart="26.85" departLane="best" from="-100706544#3" to="-88149823"/>
    <trip id="bike62" type="bike_bicycle" depart="27.29" departLane="best" from="-132013525#3" to="925345290"/>
    <trip id="bike63" type="bike_bicycle" depart="27.73" departLane="best" from="561912364#2" to="485551962"/>
    <trip id="bike64" type="bike_bicycle" depart="28.17" departLane="best" from="-563882862#0" to="-215445559#4"/>
    <trip id="bike65" type="bike_bicycle" depart="28.61" departLane="best" from="561899171" to="928556442"/>
    <trip id="bike66" type="bike_bicycle" depart="29.05" departLane="best" from="-217350344#2" to="214434326#4"/>
    <trip id="bike67" type="bike_bicycle" depart="29.49" departLane="best" from="-216272408" to="393219434"/>
    <trip id="bike68" type="bike_bicycle" depart="29.93" departLane="best" from="38449313#1" to="-252223472"/>
    <trip id="bike69" type="bike_bicycle" depart="30.37" departLane="best" from="189615590#0" to="220083133#2"/>
    <trip id="bike70" type="bike_bicycle" depart="30.81" departLane="best" from="-450424450#0" to="606792777#5"/>
    <trip id="bike71" type="bike_bicycle" depart="31.25" departLane="best" from="108708329#3" to="-38133097#1"/>
    <trip id="bike72" type="bike_bicycle" depart="31.69" departLane="best" from="217719140#4" to="37911112#2"/>
    <trip id="bike73" type="bike_bicycle" depart="32.13" departLane="best" from="-37741994#0" to="-606792775#2"/>
    <trip id="bike74" type="bike_bicycle" depart="32.57" departLane="best" departSpeed="max" from="973436059" to="288143108#2"/>
    <trip id="bike75" type="bike_bicycle" depart="33.01" departLane="best" from="130581733" to="217449590"/>
    <trip id="bike76" type="bike_bicycle" depart="33.45" departLane="best" from="-230069299" to="-38559841#5"/>
    <trip id="bike77" type="bike_bicycle" depart="33.89" departLane="best" from="-907685857" to="244114990#1"/>
    <trip id="bike78" type="bike_bicycle" depart="34.33" departLane="best" from="-38133098" to="-38445363#3"/>
    <trip id="bike79" type="bike_bicycle" depart="34.77" departLane="best" from="-216272443#0" to="28620716#0"/>
    <trip id="bike80" type="bike_bicycle" depart="35.21" departLane="best" from="-38133074" to="907721062#2"/>
    <trip id="bike81" type="bike_bicycle" depart="35.65" departLane="best" from="477756832#1" to="-217350308#1"/>
    <trip id="bike82" type="bike_bicycle" depart="36.09" departLane="best" from="-37796661" to="-27318456"/>
    <trip id="bike83" type="bike_bicycle" depart="36.53" departLane="best" departSpeed="max" from="913205558" to="231046224#4"/>
    <trip id="bike84" type="bike_bicycle" depart="36.97" departLane="best" from="450281023" to="-37795666#1"/>
    <trip id="bike85" type="bike_bicycle" depart="37.41" departLane="best" from="-219248035#1" to="189151154#0"/>
    <trip id="bike86" type="bike_bicycle" depart="37.85" departLane="best" from="37748604#0" to="326758835"/>
    <trip id="bike87" type="bike_bicycle" depart="38.29" departLane="best" from="945670237#1" to="-219484107#1"/>
    <trip id="bike88" type="bike_bicycle" depart="38.73" departLane="best" departSpeed="max" from="-973416480" to="-913205568"/>
    <trip id="bike89" type="bike_bicycle" depart="39.17" departLane="best" from="48151889#0" to="-450278931"/>
    <trip id="bike90" type="bike_bicycle" depart="39.61" departLane="best" from="-356396578#2" to="191346919#0"/>
    <trip id="bike91" type="bike_bicycle" depart="40.05" departLane="best" departSpeed="max" from="108650755" to="-453410348"/>
    <trip id="bike92" type="bike_bicycle" depart="40.49" departLane="best" from="-425863182" to="924438593"/>
    <trip id="bike93" type="bike_bicycle" depart="40.93" departLane="best" from="131975556#1" to="563882848#3"/>
    <trip id="bike94" type="bike_bicycle" depart="41.37" departLane="best" from="219276440#6" to="-208928182"/>
    <trip id="bike95" type="bike_bicycle" depart="41.81" departLane="best" departSpeed="max" from="976731082" to="490114474#1"/>
    <trip id="bike96" type="bike_bicycle" depart="42.25" departLane="best" from="929830026#0" to="924841697"/>
    <trip id="bike97" type="bike_bicycle" depart="42.69" departLane="best" from="470073702#0" to="-326667081#4"/>
    <trip id="bike98" type="bike_bicycle" depart="43.13" departLane="best" from="192239537#0" to="-38133112#3"/>
    <trip id="bike99" type="bike_bicycle" depart="43.57" departLane="best" departSpeed="max" from="-973077881" to="-216272338#0"/>
    <trip id="bike100" type="bike_bicycle" depart="44.01" departLane="best" departSpeed="max" from="-450424451" to="449279572"/>
    <trip id="bike101" type="bike_bicycle" depart="44.45" departLane="best" from="927120517" to="974197877"/>
    <trip id="bike102" type="bike_bicycle" depart="44.89" departLane="best" from="219477650" to="37742071#2"/>
    <trip id="bike103" type="bike_bicycle" depart="45.33" departLane="best" from="-285838898#1" to="-561899154#0"/>
    <trip id="bike104" type="bike_bicycle" depart="45.77" departLane="best" from="929788479" to="237136951#0"/>
    <trip id="bike105" type="bike_bicycle" depart="46.21" departLane="best" from="218549596#1" to="38133142#0"/>
    <trip id="bike106" type="bike_bicycle" depart="46.65" departLane="best" from="-211061170" to="240825682#3"/>
    <trip id="bike107" type="bike_bicycle" depart="47.09" departLane="best" from="207815727" to="562214271#3"/>
    <trip id="bike108" type="bike_bicycle" depart="47.53" departLane="best" from="-28620298#0" to="942442901"/>
    <trip id="bike109" type="bike_bicycle" depart="47.97" departLane="best" from="-217350316#1" to="-37742042#2"/>
    <trip id="bike111" type="bike_bicycle" depart="48.85" departLane="best" from="-38434576#4" to="-243305983#0"/>
    <trip id="bike112" type="bike_bicycle" depart="49.29" departLane="best" from="563882880" to="-450272536#0"/>
    <trip id="bike114" type="bike_bicycle" depart="50.17" departLane="best" from="1066719747#1" to="240825673#2"/>
    <trip id="bike115" type="bike_bicycle" depart="50.61" departLane="best" from="216698219#1" to="926872805"/>
    <trip id="bike116" type="bike_bicycle" depart="51.05" departLane="best" from="-37742033#3" to="37742044#1"/>
    <trip id="bike117" type="bike_bicycle" depart="51.49" departLane="best" from="-38449312#1" to="112422904"/>
    <trip id="bike118" type="bike_bicycle" depart="51.93" departLane="best" from="30048968#0" to="-562510963#1"/>
    <trip id="bike119" type="bike_bicycle" depart="52.37" departLane="best" from="-606792777#0" to="38438202#0"/>
    <trip id="bike120" type="bike_bicycle" depart="52.81" departLane="best" from="-216272462#0" to="192163599#1"/>
    <trip id="bike121" type="bike_bicycle" depart="53.25" departLane="best" from="976124205#0" to="974197889"/>
    <trip id="bike122" type="bike_bicycle" depart="53.69" departLane="best" departSpeed="max" from="-216272470#3" to="-38133107#5"/>
    <trip id="bike123" type="bike_bicycle" depart="54.13" departLane="best" departSpeed="max" from="-450424451" to="926837182"/>
    <trip id="bike124" type="bike_bicycle" depart="54.57" departLane="best" departSpeed="max" from="-938299494#1" to="-288207531#2"/>
    <trip id="bike125" type="bike_bicycle" depart="55.02" departLane="best" from="451653095" to="356398340#0"/>
    <trip id="bike127" type="bike_bicycle" depart="55.90" departLane="best" from="287533396#0" to="-112414432#0"/>
    <trip id="bike129" type="bike_bicycle" depart="56.78" departLane="best" from="288143107#2" to="927263323#2"/>
    <trip id="bike130" type="bike_bicycle" depart="57.22" departLane="best" from="-244101557#6" to="-240821913#1"/>
    <trip id="bike131" type="bike_bicycle" depart="57.66" departLane="best" from="-219482031#1" to="226279439"/>
    <trip id="bike132" type="bike_bicycle" depart="58.10" departLane="best" from="-451652912" to="27126510#2"/>
    <trip id="bike134" type="bike_bicycle" depart="58.98" departLane="best" from="285557655" to="-450430004"/>
    <trip id="bike135" type="bike_bicycle" depart="59.42" departLane="best" from="194841209#0" to="907721062#1"/>
    <trip id="bike136" type="bike_bicycle" depart="59.86" departLane="best" from="467642850#5" to="-219481996#2"/>
    <trip id="bike137" type="bike_bicycle" depart="60.30" departLane="best" from="109195880#1" to="-453410276"/>
    <trip id="bike138" type="bike_bicycle" depart="60.74" departLane="best" from="-1066596244" to="426043761#1"/>
    <trip id="bike139" type="bike_bicycle" depart="61.18" departLane="best" from="285838892#4" to="-450424490"/>
    <trip id="bike140" type="bike_bicycle" depart="61.62" departLane="best" from="37911132#2" to="220800578#1"/>
    <trip id="bike141" type="bike_bicycle" depart="62.06" departLane="best" from="126014222#0" to="-126014296#2"/>
    <trip id="bike143" type="bike_bicycle" depart="62.94" departLane="best" from="658029349#1" to="219665229"/>
    <trip id="bike144" type="bike_bicycle" depart="63.38" departLane="best" from="451653183" to="240825667#4"/>
    <trip id="bike145" type="bike_bicycle" depart="63.82" departLane="best" from="-27882455#1" to="-250304280#0"/>
    <trip id="bike147" type="bike_bicycle" depart="64.70" departLane="best" departSpeed="max" from="449279570" to="563882842#1"/>
    <trip id="bike149" type="bike_bicycle" depart="65.58" departLane="best" from="-425863177#2" to="-226279438"/>
    <trip id="bike150" type="bike_bicycle" depart="66.02" departLane="best" from="425863157#1" to="698804974#1"/>
    <trip id="bike151" type="bike_bicycle" depart="66.46" departLane="best" departSpeed="max" from="-973918079" to="285739471#3"/>
    <trip id="bike152" type="bike_bicycle" depart="66.90" departLane="best" from="-285838892#3" to="926529478"/>
    <trip id="bike153" type="bike_bicycle" depart="67.34" departLane="best" departSpeed="max" from="485965708" to="945751934"/>
    <trip id="bike154" type="bike_bicycle" depart="67.78" departLane="best" departSpeed="max" from="450358983" to="69749638#3"/>
    <trip id="bike155" type="bike_bicycle" depart="68.22" departLane="best" from="-189151163#0" to="37961025#7"/>
    <trip id="bike156" type="bike_bicycle" depart="68.66" departLane="best" from="-906135130" to="926751588"/>
    <trip id="bike157" type="bike_bicycle" depart="69.10" departLane="best" departSpeed="max" from="450272544" to="563882884#10"/>
    <trip id="bike158" type="bike_bicycle" depart="69.54" departLane="best" departSpeed="max" from="450281057" to="-450501976"/>
    <trip id="bike159" type="bike_bicycle" depart="69.98" departLane="best" from="444058035#1" to="-229807933#0"/>
    <trip id="bike160" type="bike_bicycle" depart="70.42" departLane="best" from="504209136#0" to="563368155"/>
    <trip id="bike161" type="bike_bicycle" depart="70.86" departLane="best" from="-37959415#0" to="471664560#1"/>
    <trip id="bike162" type="bike_bicycle" depart="71.30" departLane="best" from="189151152#2" to="-563882873#0"/>
    <trip id="bike164" type="bike_bicycle" depart="72.18" departLane="best" from="-188982388#7" to="-37796656#7"/>
    <trip id="bike165" type="bike_bicycle" depart="72.62" departLane="best" departSpeed="max" from="-826365214#1" to="563882884#6"/>
    <trip id="bike166" type="bike_bicycle" depart="73.06" departLane="best" from="927933238#3" to="-453410354"/>
    <trip id="bike167" type="bike_bicycle" depart="73.50" departLane="best" from="28620339#1" to="126014323#2"/>
    <trip id="bike168" type="bike_bicycle" depart="73.94" departLane="best" departSpeed="max" from="944535077" to="219477652#2"/>
    <trip id="bike169" type="bike_bicycle" depart="74.38" departLane="best" from="915434634" to="-240821913#0"/>
    <trip id="bike170" type="bike_bicycle" depart="74.82" departLane="best" from="93620675#0" to="-358541120#2"/>
    <trip id="bike171" type="bike_bicycle" depart="75.26" departLane="best" from="927290672#0" to="-450433608#0"/>
    <trip id="bike172" type="bike_bicycle" depart="75.70" departLane="best" from="-219484108#5" to="189314819#2"/>
    <trip id="bike173" type="bike_bicycle" depart="76.14" departLane="best" from="37742080#0" to="-618007957"/>
    <trip id="bike175" type="bike_bicycle" depart="77.02" departLane="best" from="-449020590" to="360738198"/>
    <trip id="bike176" type="bike_bicycle" depart="77.46" departLane="best" from="-101566832#0" to="924826933"/>
    <trip id="bike177" type="bike_bicycle" depart="77.90" departLane="best" from="217449614#1" to="37748604#0"/>
    <trip id="bike178" type="bike_bicycle" depart="78.34" departLane="best" from="37915925#1" to="326538548#0"/>
    <trip id="bike179" type="bike_bicycle" depart="78.78" departLane="best" from="-927263324" to="-217350301#0"/>
    <trip id="bike180" type="bike_bicycle" depart="79.22" departLane="best" from="288143114#1" to="-907600729"/>
    <trip id="bike183" type="bike_bicycle" depart="80.54" departLane="best" from="-563882883#0" to="130581735#0"/>
    <trip id="bike184" type="bike_bicycle" depart="80.98" departLane="best" departSpeed="max" from="-973416478" to="-560511063"/>
    <trip id="bike185" type="bike_bicycle" depart="81.42" departLane="best" from="-240821913#1" to="168773626#0"/>
    <trip id="bike186" type="bike_bicycle" depart="81.86" departLane="best" departSpeed="max" from="917700539" to="338016325#1"/>
    <trip id="bike188" type="bike_bicycle" depart="82.74" departLane="best" from="-562214271#2" to="219726621"/>
    <trip id="bike189" type="bike_bicycle" depart="83.18" departLane="best" departSpeed="max" from="-100706544#14" to="-472144382#4"/>
    <trip id="bike190" type="bike_bicycle" depart="83.62" departLane="best" departSpeed="max" from="126014323#0" to="240740542"/>
    <trip id="bike192" type="bike_bicycle" depart="84.50" departLane="best" from="189477006#0" to="907600724"/>
    <trip id="bike193" type="bike_bicycle" depart="84.94" departLane="best" from="449279565" to="-348424056"/>
    <trip id="bike194" type="bike_bicycle" depart="85.38" departLane="best" from="-217350342#3" to="217352305#1"/>
    <trip id="bike195" type="bike_bicycle" depart="85.82" departLane="best" from="28518573#0" to="-912194706"/>
    <trip id="bike196" type="bike_bicycle" depart="86.26" departLane="best" from="450429991#3" to="38435347"/>
    <trip id="bike197" type="bike_bicycle" depart="86.70" departLane="best" from="302972184" to="-38559841#4"/>
    <trip id="bike198" type="bike_bicycle" depart="87.14" departLane="best" from="-394139177#1" to="205543028"/>
    <trip id="bike199" type="bike_bicycle" depart="87.58" departLane="best" from="470073711#4" to="-217350334#3"/>
    <trip id="bike200" type="bike_bicycle" depart="88.02" departLane="best" departSpeed="max" from="101550832" to="28620649#0"/>
    <trip id="bike201" type="bike_bicycle" depart="88.46" departLane="best" departSpeed="max" from="-356398340#1" to="356396649#0"/>
    <trip id="bike202" type="bike_bicycle" depart="88.90" departLane="best" from="203432795#1" to="-450126200"/>
    <trip id="bike203" type="bike_bicycle" depart="89.34" departLane="best" from="287533464" to="-107903097#2"/>
    <trip id="bike204" type="bike_bicycle" depart="89.78" departLane="best" from="38092286#2" to="425869935#1"/>
    <trip id="bike205" type="bike_bicycle" depart="90.22" departLane="best" from="-219482027#9" to="184746983#3"/>
    <trip id="bike206" type="bike_bicycle" depart="90.66" departLane="best" from="-29501745" to="941732054"/>
    <trip id="bike207" type="bike_bicycle" depart="91.11" departLane="best" from="216272424" to="-208356050"/>
    <trip id="bike208" type="bike_bicycle" depart="91.55" departLane="best" from="-425863171#1" to="561763669#1"/>
    <trip id="bike209" type="bike_bicycle" depart="91.99" departLane="best" from="288207547#1" to="973077882"/>
    <trip id="bike210" type="bike_bicycle" depart="92.43" departLane="best" from="236141751#1" to="93622757"/>
    <trip id="bike211" type="bike_bicycle" depart="92.87" departLane="best" from="563882886#1" to="27882435#0"/>
    <trip id="bike212" type="bike_bicycle" depart="93.31" departLane="best" from="360738196#0" to="217350240#1"/>
    <trip id="bike213" type="bike_bicycle" depart="93.75" departLane="best" from="451652852" to="219726620#2"/>
    <trip id="bike214" type="bike_bicycle" depart="94.19" departLane="best" from="606792775#0" to="38133082"/>
    <trip id="bike215" type="bike_bicycle" depart="94.63" departLane="best" from="189516644" to="-450424459"/>
    <trip id="bike216" type="bike_bicycle" depart="95.07" departLane="best" from="-425820793#2" to="286669408#2"/>
    <trip id="bike217" type="bike_bicycle" depart="95.51" departLane="best" from="38449313#0" to="218549564#3"/>
    <trip id="bike218" type="bike_bicycle" depart="95.95" departLane="best" from="27806441#0" to="-451653046#1"/>
    <trip id="bike219" type="bike_bicycle" depart="96.39" departLane="best" from="-217350275#1" to="-472144366#1"/>
    <trip id="bike220" type="bike_bicycle" depart="96.83" departLane="best" from="-451607349#0" to="-698804973#4"/>
    <trip id="bike221" type="bike_bicycle" depart="97.27" departLane="best" from="217763435#0" to="-285776287#10"/>
    <trip id="bike222" type="bike_bicycle" depart="97.71" departLane="best" from="-38133108#1" to="356396462"/>
    <trip id="bike223" type="bike_bicycle" depart="98.15" departLane="best" from="356396530#2" to="-216272465#0"/>
    <trip id="bike225" type="bike_bicycle" depart="99.03" departLane="best" from="101566847#0" to="-37961039#0"/>
    <trip id="bike226" type="bike_bicycle" depart="99.47" departLane="best" from="107903093" to="907721058#1"/>
    <trip id="bike227" type="bike_bicycle" depart="99.91" departLane="best" from="229807929" to="356396580#0"/>
    <trip id="bike228" type="bike_bicycle" depart="100.35" departLane="best" from="-942444602#2" to="-108636200#12"/>
    <trip id="bike229" type="bike_bicycle" depart="100.79" departLane="best" from="-918537918#1" to="38445363#3"/>
    <trip id="bike230" type="bike_bicycle" depart="101.23" departLane="best" departSpeed="max" from="472105532" to="940302719"/>
    <trip id="bike231" type="bike_bicycle" depart="101.67" departLane="best" from="1066719746#1" to="38133133#5"/>
    <trip id="bike232" type="bike_bicycle" depart="102.11" departLane="best" from="219006098#0" to="27103144#3"/>
    <trip id="bike233" type="bike_bicycle" depart="102.55" departLane="best" from="-37915948#0" to="-38438991#2"/>
    <trip id="bike234" type="bike_bicycle" depart="102.99" departLane="best" from="127108236#6" to="-189314896#1"/>
    <trip id="bike235" type="bike_bicycle" depart="103.43" departLane="best" departSpeed="max" from="-907276595#2" to="348683849#8"/>
    <trip id="bike236" type="bike_bicycle" depart="103.87" departLane="best" departSpeed="max" from="-973436734" to="-326538563#2"/>
    <trip id="bike237" type="bike_bicycle" depart="104.31" departLane="best" from="189314874#3" to="-250304280#3"/>
    <trip id="bike238" type="bike_bicycle" depart="104.75" departLane="best" from="-189314833" to="287533473#1"/>
    <trip id="bike239" type="bike_bicycle" depart="105.19" departLane="best" from="-244114990#2" to="192667745"/>
    <trip id="bike240" type="bike_bicycle" depart="105.63" departLane="best" departSpeed="max" from="-203272101#2" to="-973585321"/>
    <trip id="bike241" type="bike_bicycle" depart="106.07" departLane="best" from="-37796655#0" to="-907204998"/>
    <trip id="bike242" type="bike_bicycle" depart="106.51" departLane="best" from="38400127#1" to="-973585321"/>
    <trip id="bike243" type="bike_bicycle" depart="106.95" departLane="best" from="38129198#0" to="485578689#3"/>
    <trip id="bike244" type="bike_bicycle" depart="107.39" departLane="best" from="-439824072#0" to="-218549559#1"/>
    <trip id="bike245" type="bike_bicycle" depart="107.83" departLane="best" from="-132013525#2" to="219482008#13"/>
    <trip id="bike246" type="bike_bicycle" depart="108.27" departLane="best" from="99045290#2" to="-925023197#4"/>
    <trip id="bike247" type="bike_bicycle" depart="108.71" departLane="best" departSpeed="max" from="28620941" to="449212834#2"/>
    <trip id="bike248" type="bike_bicycle" depart="109.15" departLane="best" from="286669406#10" to="38449125"/>
    <trip id="bike249" type="bike_bicycle" depart="109.59" departLane="best" from="924960764" to="-37911122#1"/>
    <trip id="bike250" type="bike_bicycle" depart="110.03" departLane="best" from="-134811489#1" to="-287653115#1"/>
    <trip id="bike252" type="bike_bicycle" depart="110.91" departLane="best" from="219483759#1" to="-38434904"/>
    <trip id="bike253" type="bike_bicycle" depart="111.35" departLane="best" from="356396093#2" to="425820795"/>
    <trip id="bike254" type="bike_bicycle" depart="111.79" departLane="best" from="-287653121#3" to="27184855#0"/>
    <trip id="bike255" type="bike_bicycle" depart="112.23" departLane="best" from="37961030#2" to="-237143905#1"/>
    <trip id="bike256" type="bike_bicycle" depart="112.67" departLane="best" departSpeed="max" from="450430003" to="942532213"/>
    <trip id="bike257" type="bike_bicycle" depart="113.11" departLane="best" from="-219484107#5" to="-189314815#1"/>
    <trip id="bike258" type="bike_bicycle" depart="113.55" departLane="best" from="-563882910" to="338016326#0"/>
    <trip id="bike259" type="bike_bicycle" depart="113.99" departLane="best" from="927233835#2" to="118466885"/>
    <trip id="bike260" type="bike_bicycle" depart="114.43" departLane="best" from="356398365#2" to="-217350342#1"/>
    <trip id="bike261" type="bike_bicycle" depart="114.87" departLane="best" departSpeed="max" from="348683849#0" to="28620339#2"/>
    <trip id="bike262" type="bike_bicycle" depart="115.31" departLane="best" from="-219481998#1" to="444002071"/>
    <trip id="bike263" type="bike_bicycle" depart="115.75" departLane="best" from="470073722#2" to="26937104"/>
    <trip id="bike264" type="bike_bicycle" depart="116.19" departLane="best" from="-230069299" to="972838599"/>