<?xml version="1.0" encoding="UTF-8"?>

<!-- generated on 2022-07-14 11:40:14 by Eclipse SUMO duarouter Version 1.12.0
<configuration xmlns:xsi="http://www.w3.org/2001/XMLSchema-instance" xsi:noNamespaceSchemaLocation="http://sumo.dlr.de/xsd/duarouterConfiguration.xsd">

    <input>
        <net-file value="C:\Users\Danton%20Moura\Sumo\2022-07-14-11-34-33\osm.net.xml"/>
        <route-files value="C:\Users\Danton%20Moura\Sumo\2022-07-14-11-34-33\osm.motorcycle.trips.xml"/>
    </input>

    <output>
        <output-file value="C:\Users\Danton%20Moura\Sumo\2022-07-14-11-34-33\osm.motorcycle.trips.xml.tmp"/>
        <write-trips value="true"/>
    </output>

    <time>
        <begin value="0"/>
        <end value="3600"/>
    </time>

    <report>
        <no-warnings value="true"/>
        <ignore-errors value="true"/>
        <no-step-log value="true"/>
    </report>

</configuration>
-->

<routes xmlns:xsi="http://www.w3.org/2001/XMLSchema-instance" xsi:noNamespaceSchemaLocation="http://sumo.dlr.de/xsd/routes_file.xsd">
    <vType id="moto_motorcycle" vClass="motorcycle"/>
    <trip id="moto0" type="moto_motorcycle" depart="0.00" departLane="best" from="474807466#0" to="28620329"/>
    <trip id="moto1" type="moto_motorcycle" depart="0.86" departLane="best" from="453504957" to="38654312"/>
    <trip id="moto2" type="moto_motorcycle" depart="1.72" departLane="best" from="70018056#1" to="219402749#0"/>
    <trip id="moto3" type="moto_motorcycle" depart="2.59" departLane="best" from="-563882839#3" to="-562214271#0"/>
    <trip id="moto4" type="moto_motorcycle" depart="3.45" departLane="best" from="-219673759#5" to="-203432803#1"/>
    <trip id="moto5" type="moto_motorcycle" depart="4.31" departLane="best" departSpeed="max" from="-247241618" to="288207545#1"/>
    <trip id="moto6" type="moto_motorcycle" depart="5.17" departLane="best" from="219482027#10" to="-37742080#3"/>
    <trip id="moto7" type="moto_motorcycle" depart="6.03" departLane="best" from="-38559419#0" to="-38559160#1"/>
    <trip id="moto8" type="moto_motorcycle" depart="6.90" departLane="best" from="-393219436#1" to="350280504"/>
    <trip id="moto9" type="moto_motorcycle" depart="7.76" departLane="best" from="-451653519#3" to="923502947"/>
    <trip id="moto10" type="moto_motorcycle" depart="8.62" departLane="best" from="205500306#4" to="561899140"/>
    <trip id="moto11" type="moto_motorcycle" depart="9.48" departLane="best" from="244765836#3" to="-208004245"/>
    <trip id="moto12" type="moto_motorcycle" depart="10.34" departLane="best" from="28620154#1" to="288143103#8"/>
    <trip id="moto13" type="moto_motorcycle" depart="11.21" departLane="best" from="-37911097#0" to="37742013#9"/>
    <trip id="moto14" type="moto_motorcycle" depart="12.07" departLane="best" from="-942089587#0" to="38133074"/>
    <trip id="moto15" type="moto_motorcycle" depart="12.93" departLane="best" from="97503984#3" to="97503980#5"/>
    <trip id="moto16" type="moto_motorcycle" depart="13.79" departLane="best" from="-219477653#3" to="-38434961#2"/>
    <trip id="moto17" type="moto_motorcycle" depart="14.65" departLane="best" from="-243500934" to="27369582#5"/>
    <trip id="moto18" type="moto_motorcycle" depart="15.52" departLane="best" from="-219481994" to="563882889#1"/>
    <trip id="moto19" type="moto_motorcycle" depart="16.38" departLane="best" from="-100706560" to="924410421"/>
    <trip id="moto20" type="moto_motorcycle" depart="17.24" departLane="best" from="-100706544#11" to="-927281253#2"/>
    <trip id="moto21" type="moto_motorcycle" depart="18.10" departLane="best" from="205385527" to="-38435009#3"/>
    <trip id="moto22" type="moto_motorcycle" depart="18.96" departLane="best" from="219482008#11" to="-500493280#0"/>
    <trip id="moto23" type="moto_motorcycle" depart="19.83" departLane="best" from="356396648#4" to="229187785#2"/>
    <trip id="moto24" type="moto_motorcycle" depart="20.69" departLane="best" from="563882878#0" to="37915985#1"/>
    <trip id="moto25" type="moto_motorcycle" depart="21.55" departLane="best" from="-203432803#0" to="189482141#0"/>
    <trip id="moto26" type="moto_motorcycle" depart="22.41" departLane="best" from="-244685952" to="-188997830#0"/>
    <trip id="moto27" type="moto_motorcycle" depart="23.27" departLane="best" from="102927073#0" to="563882879"/>
    <trip id="moto28" type="moto_motorcycle" depart="24.14" departLane="best" from="-219482028#2" to="37742054#1"/>
    <trip id="moto29" type="moto_motorcycle" depart="25.00" departLane="best" from="-219729129" to="-38559447#1"/>
    <trip id="moto30" type="moto_motorcycle" depart="25.86" departLane="best" from="37795666#2" to="127090536#0"/>
    <trip id="moto31" type="moto_motorcycle" depart="26.72" departLane="best" from="219299322#1" to="37795642#0"/>
    <trip id="moto32" type="moto_motorcycle" depart="27.58" departLane="best" from="-88149823" to="-243463367#0"/>
    <trip id="moto33" type="moto_motorcycle" depart="28.44" departLane="best" from="356396037" to="-28620701#1"/>
    <trip id="moto34" type="moto_motorcycle" depart="29.31" departLane="best" from="924438592" to="219483758#3"/>
    <trip id="moto35" type="moto_motorcycle" depart="30.17" departLane="best" from="38559160#3" to="-38654287#1"/>
    <trip id="moto36" type="moto_motorcycle" depart="31.03" departLane="best" from="38449312#1" to="288207517#7"/>
    <trip id="moto37" type="moto_motorcycle" depart="31.89" departLane="best" from="219481996#2" to="-229038413#0"/>
    <trip id="moto38" type="moto_motorcycle" depart="32.75" departLane="best" from="-972572599" to="356396290#2"/>
    <trip id="moto39" type="moto_motorcycle" depart="33.62" departLane="best" from="37911132#6" to="-38133089#2"/>
    <trip id="moto40" type="moto_motorcycle" depart="34.48" departLane="best" from="247241626#2" to="-229187855#0"/>
    <trip id="moto41" type="moto_motorcycle" depart="35.34" departLane="best" from="451653047#2" to="229038419#0"/>
    <trip id="moto42" type="moto_motorcycle" depart="36.20" departLane="best" from="791406764" to="229293536#2"/>
    <trip id="moto43" type="moto_motorcycle" depart="37.06" departLane="best" from="561899143#0" to="561912357#8"/>
    <trip id="moto44" type="moto_motorcycle" depart="37.93" departLane="best" departSpeed="max" from="37795652" to="357280596"/>
    <trip id="moto45" type="moto_motorcycle" depart="38.79" departLane="best" from="500493458#1" to="217449600#0"/>
    <trip id="moto46" type="moto_motorcycle" depart="39.65" departLane="best" from="356395966#4" to="753702456#1"/>
    <trip id="moto47" type="moto_motorcycle" depart="40.51" departLane="best" from="27126594#1" to="444002068#4"/>
    <trip id="moto48" type="moto_motorcycle" depart="41.37" departLane="best" from="28620701#0" to="132217053"/>
    <trip id="moto49" type="moto_motorcycle" depart="42.24" departLane="best" from="927263326#0" to="-288143107#1"/>
    <trip id="moto50" type="moto_motorcycle" depart="43.10" departLane="best" from="927287859" to="504209136#5"/>
    <trip id="moto51" type="moto_motorcycle" depart="43.96" departLane="best" from="130695683#0" to="218950940#0"/>
    <trip id="moto52" type="moto_motorcycle" depart="44.82" departLane="best" from="-37742076#0" to="-28620448#4"/>
    <trip id="moto53" type="moto_motorcycle" depart="45.68" departLane="best" from="-28620154#1" to="28475557"/>
    <trip id="moto54" type="moto_motorcycle" depart="46.55" departLane="best" from="-451653570#1" to="-37742044#0"/>
    <trip id="moto55" type="moto_motorcycle" depart="47.41" departLane="best" from="229187808" to="219299288#4"/>
    <trip id="moto56" type="moto_motorcycle" depart="48.27" departLane="best" from="-229038413#2" to="37796670"/>
    <trip id="moto57" type="moto_motorcycle" depart="49.13" departLane="best" from="-244692899" to="477600648#0"/>
    <trip id="moto58" type="moto_motorcycle" depart="49.99" departLane="best" from="-498675925" to="127088647#7"/>
    <trip id="moto59" type="moto_motorcycle" depart="50.86" departLane="best" from="454586902#4" to="-490114474#0"/>
    <trip id="moto60" type="moto_motorcycle" depart="51.72" departLane="best" from="27126437" to="30048837"/>
    <trip id="moto61" type="moto_motorcycle" depart="52.58" departLane="best" from="-927281252" to="-917387134"/>
    <trip id="moto62" type="moto_motorcycle" depart="53.44" departLane="best" from="131984121#0" to="439824072#0"/>
    <trip id="moto63" type="moto_motorcycle" depart="54.30" departLane="best" from="925246406#0" to="219926621#2"/>
    <trip id="moto64" type="moto_motorcycle" depart="55.17" departLane="best" from="-229360341#1" to="38559417#0"/>
    <trip id="moto65" type="moto_motorcycle" depart="56.03" departLane="best" from="451653382#0" to="563882897"/>
    <trip id="moto66" type="moto_motorcycle" depart="56.89" departLane="best" from="37916008#4" to="-913205562"/>
    <trip id="moto67" type="moto_motorcycle" depart="57.75" departLane="best" from="-219482008#5" to="-563882882#1"/>
    <trip id="moto68" type="moto_motorcycle" depart="58.61" departLane="best" from="-247241626#2" to="-927779884#0"/>
    <trip id="moto69" type="moto_motorcycle" depart="59.48" departLane="best" from="37796658#4" to="-37796663#0"/>
    <trip id="moto70" type="moto_motorcycle" depart="60.34" departLane="best" from="127088647#1" to="393912426"/>
    <trip id="moto71" type="moto_motorcycle" depart="61.20" departLane="best" from="27126704" to="287533432#0"/>
    <trip id="moto72" type="moto_motorcycle" depart="62.06" departLane="best" from="108692733#3" to="-219299311#4"/>
    <trip id="moto73" type="moto_motorcycle" depart="62.92" departLane="best" from="449212834#0" to="-219482002#2"/>
    <trip id="moto74" type="moto_motorcycle" depart="63.79" departLane="best" from="-211061188#0" to="-28620543"/>
    <trip id="moto75" type="moto_motorcycle" depart="64.65" departLane="best" from="-451653408" to="562103005#5"/>
    <trip id="moto76" type="moto_motorcycle" depart="65.51" departLane="best" from="220083135#2" to="229187722"/>
    <trip id="moto77" type="moto_motorcycle" depart="66.37" departLane="best" from="125384254#3" to="-208004244"/>
    <trip id="moto78" type="moto_motorcycle" depart="67.23" departLane="best" from="219482008#2" to="563882886#2"/>
    <trip id="moto79" type="moto_motorcycle" depart="68.10" departLane="best" from="-37796658#1" to="229293538#3"/>
    <trip id="moto80" type="moto_motorcycle" depart="68.96" departLane="best" from="-439824071#0" to="35540326#2"/>
    <trip id="moto81" type="moto_motorcycle" depart="69.82" departLane="best" from="38133079#0" to="-108636200#9"/>
    <trip id="moto82" type="moto_motorcycle" depart="70.68" departLane="best" from="895917159#1" to="563882836#1"/>
    <trip id="moto83" type="moto_motorcycle" depart="71.54" departLane="best" from="451652887#1" to="229809627#2"/>
    <trip id="moto85" type="moto_motorcycle" depart="73.27" departLane="best" from="-451653376" to="38133119#2"/>
    <trip id="moto86" type="moto_motorcycle" depart="74.13" departLane="best" from="326126529" to="27102738#3"/>
    <trip id="moto87" type="moto_motorcycle" depart="74.99" departLane="best" from="-658029349#2" to="926818163"/>
    <trip id="moto88" type="moto_motorcycle" depart="75.85" departLane="best" from="37961056#0" to="563882897"/>
    <trip id="moto89" type="moto_motorcycle" depart="76.72" departLane="best" from="-942545000#1" to="-945712592"/>
    <trip id="moto90" type="moto_motorcycle" depart="77.58" departLane="best" from="-38400123#1" to="-944622831"/>
    <trip id="moto91" type="moto_motorcycle" depart="78.44" departLane="best" from="-216490185#1" to="927263324"/>
    <trip id="moto92" type="moto_motorcycle" depart="79.30" departLane="best" from="287533429#0" to="208928182"/>
    <trip id="moto93" type="moto_motorcycle" depart="80.16" departLane="best" from="-926832230#3" to="359881974#6"/>
    <trip id="moto94" type="moto_motorcycle" depart="81.02" departLane="best" from="27027377#1" to="-28629688#2"/>
    <trip id="moto96" type="moto_motorcycle" depart="82.75" departLane="best" from="247241626#0" to="38654299#1"/>
    <trip id="moto97" type="moto_motorcycle" depart="83.61" departLane="best" from="-38434576#0" to="-288207526#0"/>
    <trip id="moto98" type="moto_motorcycle" depart="84.47" departLane="best" from="27882447#0" to="206516491#0"/>
    <trip id="moto99" type="moto_motorcycle" depart="85.33" departLane="best" from="219482023#2" to="326538563#2"/>
    <trip id="moto100" type="moto_motorcycle" depart="86.20" departLane="best" from="448225717#4" to="93620675#0"/>
    <trip id="moto101" type="moto_motorcycle" depart="87.06" departLane="best" from="191322057#0" to="472595850#4"/>
    <trip id="moto102" type="moto_motorcycle" depart="87.92" departLane="best" from="219299311#8" to="220083125#5"/>
    <trip id="moto103" type="moto_motorcycle" depart="88.78" departLane="best" from="326538568#3" to="450424472"/>
    <trip id="moto104" type="moto_motorcycle" depart="89.64" departLane="best" from="-349916649" to="229187733#2"/>
    <trip id="moto105" type="moto_motorcycle" depart="90.51" departLane="best" from="27126555#1" to="504115626#2"/>
    <trip id="moto106" type="moto_motorcycle" depart="91.37" departLane="best" from="38133099#2" to="-189482152#3"/>
    <trip id="moto107" type="moto_motorcycle" depart="92.23" departLane="best" from="326955676#3" to="326955676#3"/>
    <trip id="moto108" type="moto_motorcycle" depart="93.09" departLane="best" departSpeed="max" from="-944535076" to="191322062#4"/>
    <trip id="moto109" type="moto_motorcycle" depart="93.95" departLane="best" from="-216698222#8" to="216272432#2"/>
    <trip id="moto110" type="moto_motorcycle" depart="94.82" departLane="best" from="927918484" to="-28674772#0"/>
    <trip id="moto111" type="moto_motorcycle" depart="95.68" departLane="best" from="219481992#3" to="28620257#2"/>
    <trip id="moto112" type="moto_motorcycle" depart="96.54" departLane="best" from="234014164#0" to="426033380"/>
    <trip id="moto113" type="moto_motorcycle" depart="97.40" departLane="best" from="188847921" to="38133089#1"/>
    <trip id="moto114" type="moto_motorcycle" depart="98.26" departLane="best" departSpeed="max" from="-942449053" to="-944622828"/>
    <trip id="moto115" type="moto_motorcycle" depart="99.13" departLane="best" from="941198118" to="-498675925"/>
    <trip id="moto116" type="moto_motorcycle" depart="99.99" departLane="best" from="203195772#0" to="-189482151#3"/>
    <trip id="moto117" type="moto_motorcycle" depart="100.85" departLane="best" from="-563049533#2" to="561899150"/>
    <trip id="moto118" type="moto_motorcycle" depart="101.71" departLane="best" from="356395959#0" to="326309716#1"/>
    <trip id="moto119" type="moto_motorcycle" depart="102.57" departLane="best" from="444048501#1" to="929792389"/>
    <trip id="moto120" type="moto_motorcycle" depart="103.44" departLane="best" from="-326758832#2" to="219299319#1"/>
    <trip id="moto121" type="moto_motorcycle" depart="104.30" departLane="best" from="448225718#4" to="-203195766#1"/>
    <trip id="moto122" type="moto_motorcycle" depart="105.16" departLane="best" from="356396648#0" to="27126917"/>
    <trip id="moto124" type="moto_motorcycle" depart="106.88" departLane="best" departSpeed="max" from="-944504845" to="356397877#1"/>
    <trip id="moto125" type="moto_motorcycle" depart="107.75" departLane="best" from="-917387137" to="-751924891#1"/>
    <trip id="moto126" type="moto_motorcycle" depart="108.61" departLane="best" from="326955673#1" to="-229360334#4"/>
    <trip id="moto127" type="moto_motorcycle" depart="109.47" departLane="best" from="203195761#14" to="-38434576#2"/>
    <trip id="moto128" type="moto_motorcycle" depart="110.33" departLane="best" from="-203246490#3" to="-243463359"/>
    <trip id="moto129" type="moto_motorcycle" depart="111.19" departLane="best" from="297411231#2" to="-563049527#2"/>
    <trip id="moto130" type="moto_motorcycle" depart="112.06" departLane="best" from="130711711#3" to="769942707#1"/>
    <trip id="moto131" type="moto_motorcycle" depart="112.92" departLane="best" departSpeed="max" from="-941732053" to="563882884#10"/>
    <trip id="moto132" type="moto_motorcycle" depart="113.78" departLane="best" from="37796658#3" to="-28620935#0"/>
    <trip id="moto133" type="moto_motorcycle" depart="114.64" departLane="best" from="289587080#0" to="217449592#1"/>
    <trip id="moto134" type="moto_motorcycle" depart="115.50" departLane="best" from="-219482032" to="-243463367#0"/>
    <trip id="moto135" type="moto_motorcycle" depart="116.37" departLane="best" from="37796658#16" to="28620907"/>
    <trip id="moto136" type="moto_motorcycle" depart="117.23" departLane="best" from="918262779" to="-28620922"/>
    <trip id="moto137" type="moto_motorcycle" depart="118.09" departLane="best" from="327757716" to="-219299319#4"/>
    <trip id="moto138" type="moto_motorcycle" depart="118.95" departLane="best" from="470020223#0" to="-216698222#1"/>
    <trip id="moto139" type="moto_motorcycle" depart="119.81" departLane="best" from="208654362#0" to="287533474#5"/>
    <trip id="moto140" type="moto_motorcycle" depart="120.68" departLane="best" from="37742080#3" to="-28620257#0"/>
    <trip id="moto141" type="moto_motorcycle" depart="121.54" departLane="best" from="-28620246" to="394126139"/>
    <trip id="moto142" type="moto_motorcycle" depart="122.40" departLane="best" from="38133089#0" to="-189482152#0"/>
    <trip id="moto143" type="moto_motorcycle" depart="123.26" departLane="best" departSpeed="max" from="-563882903" to="-219482017#1"/>
    <trip id="moto144" type="moto_motorcycle" depart="124.12" departLane="best" from="-37796658#4" to="280677444"/>
    <trip id="moto145" type="moto_motorcycle" depart="124.99" departLane="best" from="37911134#0" to="-500493439#3"/>
    <trip id="moto146" type="moto_motorcycle" depart="125.85" departLane="best" from="927268394#0" to="-451653376"/>
    <trip id="moto147" type="moto_motorcycle" depart="126.71" departLane="best" from="130921685#1" to="289799958#9"/>
    <trip id="moto148" type="moto_motorcycle" depart="127.57" departLane="best" from="-326758832#0" to="28620214"/>
    <trip id="moto149" type="moto_motorcycle" depart="128.43" departLane="best" from="448225717#5" to="192147549#0"/>
    <trip id="moto150" type="moto_motorcycle" depart="129.30" departLane="best" from="-699814503#1" to="-28675730"/>
    <trip id="moto151" type="moto_motorcycle" depart="130.16" departLane="best" from="944504847" to="394374175#0"/>
    <trip id="moto152" type="moto_motorcycle" depart="131.02" departLane="best" from="219333276#1" to="907604333"/>
    <trip id="moto153" type="moto_motorcycle" depart="131.88" departLane="best" from="-38400085#0" to="477741057#3"/>
    <trip id="moto154" type="moto_motorcycle" depart="132.74" departLane="best" departSpeed="max" from="-100706544#14" to="917677632"/>
    <trip id="moto155" type="moto_motorcycle" depart="133.61" departLane="best" from="470020223#0" to="527364304#1"/>
    <trip id="moto156" type="moto_motorcycle" depart="134.47" departLane="best" from="927247731#1" to="188982397#3"/>
    <trip id="moto157" type="moto_motorcycle" depart="135.33" departLane="best" departSpeed="max" from="28620465" to="921183758#1"/>
    <trip id="moto158" type="moto_motorcycle" depart="136.19" departLane="best" from="288143097#0" to="59741729#1"/>
    <trip id="moto159" type="moto_motorcycle" depart="137.05" departLane="best" from="-219477653#7" to="477741057#0"/>
    <trip id="moto160" type="moto_motorcycle" depart="137.91" departLane="best" from="-229360341#2" to="-38133100#0"/>
    <trip id="moto161" type="moto_motorcycle" depart="138.78" departLane="best" from="108401167" to="27103340#3"/>
    <trip id="moto162" type="moto_motorcycle" depart="139.64" departLane="best" from="927803286#1" to="28620908#1"/>
    <trip id="moto163" type="moto_motorcycle" depart="140.50" departLane="best" from="444058036#1" to="206611686"/>
    <trip id="moto164" type="moto_motorcycle" depart="141.36" departLane="best" from="229360338#0" to="562214271#0"/>
    <trip id="moto165" type="moto_motorcycle" depart="142.22" departLane="best" from="219064577#5" to="563882884#7"/>
    <trip id="moto166" type="moto_motorcycle" depart="143.09" departLane="best" from="37796670" to="-37742013#9"/>
    <trip id="moto167" type="moto_motorcycle" depart="143.95" departLane="best" departSpeed="max" from="941669086" to="941669087"/>
    <trip id="moto168" type="moto_motorcycle" depart="144.81" departLane="best" from="192147556" to="945689814#1"/>
    <trip id="moto169" type="moto_motorcycle" depart="145.67" departLane="best" from="287533463#0" to="470073699#0"/>
    <trip id="moto170" type="moto_motorcycle" depart="146.53" departLane="best" from="38448399" to="288207510#19"/>
    <trip id="moto171" type="moto_motorcycle" depart="147.40" departLane="best" from="229038416" to="206948832#0"/>
    <trip id="moto172" type="moto_motorcycle" depart="148.26" departLane="best" from="924392612#1" to="924392612#1"/>
    <trip id="moto173" type="moto_motorcycle" depart="149.12" departLane="best" from="356396026#0" to="-230519101"/>
    <trip id="moto174" type="moto_motorcycle" depart="149.98" departLane="best" from="37795691" to="356396259#0"/>
    <trip id="moto175" type="moto_motorcycle" depart="150.84" departLane="best" from="-130695683#0" to="393387822#3"/>
    <trip id="moto176" type="moto_motorcycle" depart="151.71" departLane="best" from="69749636" to="326309727#1"/>
    <trip id="moto177" type="moto_motorcycle" depart="152.57" departLane="best" from="-927886339" to="93622757"/>
    <trip id="moto178" type="moto_motorcycle" depart="153.43" departLane="best" from="131975115#4" to="131985983#0"/>
    <trip id="moto179" type="moto_motorcycle" depart="154.29" departLane="best" from="288143107#2" to="561899143#0"/>
    <trip id="moto180" type="moto_motorcycle" depart="155.15" departLane="best" from="612442387" to="219299321"/>
    <trip id="moto181" type="moto_motorcycle" depart="156.02" departLane="best" from="927278995#4" to="189615589#1"/>
    <trip id="moto182" type="moto_motorcycle" depart="156.88" departLane="best" from="356395959#1" to="131451533"/>
    <trip id="moto183" type="moto_motorcycle" depart="157.74" departLane="best" from="356396019#2" to="289799958#9"/>
    <trip id="moto184" type="moto_motorcycle" depart="158.60" departLane="best" from="-37796657#2" to="-37961025#8"/>
    <trip id="moto185" type="moto_motorcycle" depart="159.46" departLane="best" from="-500493291" to="-394374179#5"/>
    <trip id="moto186" type="moto_motorcycle" depart="160.33" departLane="best" from="927797443#0" to="-206749825#1"/>
    <trip id="moto187" type="moto_motorcycle" depart="161.19" departLane="best" from="-230069299" to="203432805#4"/>
    <trip id="moto188" type="moto_motorcycle" depart="162.05" departLane="best" from="37911131" to="-38559509#0"/>
    <trip id="moto189" type="moto_motorcycle" depart="162.91" departLane="best" from="229038413#2" to="356396676#0"/>
    <trip id="moto190" type="moto_motorcycle" depart="163.77" departLane="best" from="-28620932#9" to="37742037#1"/>
    <trip id="moto191" type="moto_motorcycle" depart="164.64" departLane="best" from="356396550#0" to="-27317751#0"/>
    <trip id="moto192" type="moto_motorcycle" depart="165.50" departLane="best" from="28620376" to="563882887"/>
    <trip id="moto193" type="moto_motorcycle" depart="166.36" departLane="best" from="927264252" to="939213340#1"/>
    <trip id="moto194" type="moto_motorcycle" depart="167.22" departLane="best" from="287533413#2" to="-930398539"/>
    <trip id="moto195" type="moto_motorcycle" depart="168.08" departLane="best" from="-913205544#2" to="477741061"/>
    <trip id="moto196" type="moto_motorcycle" depart="168.95" departLane="best" from="-184708063#1" to="-288207517#3"/>
    <trip id="moto197" type="moto_motorcycle" depart="169.81" departLane="best" from="37796656#0" to="-343466388"/>
    <trip id="moto198" type="moto_motorcycle" depart="170.67" departLane="best" from="451653516#0" to="356396263#1"/>
    <trip id="moto199" type="moto_motorcycle" depart="171.53" departLane="best" from="161357704" to="927803286#0"/>
    <trip id="moto200" type="moto_motorcycle" depart="172.39" departLane="best" from="-37742052#2" to="-37742039#1"/>
    <trip id="moto201" type="moto_motorcycle" depart="173.26" departLane="best" from="28629688#0" to="327757715"/>
    <trip id="moto202" type="moto_motorcycle" depart="174.12" departLane="best" departSpeed="max" from="-942097390#1" to="-38559020#1"/>
    <trip id="moto203" type="moto_motorcycle" depart="174.98" departLane="best" from="-38400128" to="-38434961#5"/>
    <trip id="moto204" type="moto_motorcycle" depart="175.84" departLane="best" from="449218566" to="943166536"/>
    <trip id="moto205" type="moto_motorcycle" depart="176.70" departLane="best" from="206663040#1" to="772557224#0"/>
    <trip id="moto206" type="moto_motorcycle" depart="177.57" departLane="best" from="563882884#2" to="-37796668#0"/>
    <trip id="moto207" type="moto_motorcycle" depart="178.43" departLane="best" from="220083133#6" to="927263323#0"/>
    <trip id="moto208" type="moto_motorcycle" depart="179.29" departLane="best" from="184734464" to="326955676#3"/>
    <trip id="moto210" type="moto_motorcycle" depart="181.01" departLane="best" from="250467590#0" to="27882403#0"/>
    <trip id="moto211" type="moto_motorcycle" depart="181.88" departLane="best" from="-28620301#1" to="326538568#6"/>
    <trip id="moto212" type="moto_motorcycle" depart="182.74" departLane="best" from="-108636200#13" to="-562214258#3"/>
    <trip id="moto213" type="moto_motorcycle" depart="183.60" departLane="best" from="203432792#2" to="471664575#1"/>
    <trip id="moto214" type="moto_motorcycle" depart="184.46" departLane="best" from="504209136#4" to="219477652#2"/>
    <trip id="moto215" type="moto_motorcycle" depart="185.32" departLane="best" from="127088649#1" to="-97503980#0"/>
    <trip id="moto216" type="moto_motorcycle" depart="186.19" departLane="best" from="219673759#9" to="-191322064#1"/>
    <trip id="moto217" type="moto_motorcycle" depart="187.05" departLane="best" from="97503984#5" to="219482014"/>
    <trip id="moto218" type="moto_motorcycle" depart="187.91" departLane="best" from="925258741#0" to="326785213#0"/>
    <trip id="moto220" type="moto_motorcycle" depart="189.63" departLane="best" from="-192239537#2" to="-38133119#1"/>
    <trip id="moto221" type="moto_motorcycle" depart="190.49" departLane="best" from="-203195780#2" to="942532213"/>
    <trip id="moto222" type="moto_motorcycle" depart="191.36" departLane="best" from="240825673#0" to="-37742039#1"/>
    <trip id="moto223" type="moto_motorcycle" depart="192.22" departLane="best" from="-37961054#0" to="-37796656#8"/>
    <trip id="moto224" type="moto_motorcycle" depart="193.08" departLane="best" from="28620339#2" to="279872193#1"/>
    <trip id="moto225" type="moto_motorcycle" depart="193.94" departLane="best" departSpeed="max" from="945722743#0" to="562214271#3"/>
    <trip id="moto226" type="moto_motorcycle" depart="194.80" departLane="best" from="471664593" to="229187784#2"/>
    <trip id="moto227" type="moto_motorcycle" depart="195.67" departLane="best" from="229038414#0" to="188755162#0"/>
    <trip id="moto228" type="moto_motorcycle" depart="196.53" departLane="best" from="504209134#1" to="203246490#0"/>
    <trip id="moto229" type="moto_motorcycle" depart="197.39" departLane="best" from="130688621#2" to="27806450#2"/>
    <trip id="moto230" type="moto_motorcycle" depart="198.25" departLane="best" from="-219673759#6" to="-288207517#3"/>
    <trip id="moto231" type="moto_motorcycle" depart="199.11" departLane="best" from="-326955673#1" to="-192024982#2"/>
    <trip id="moto232" type="moto_motorcycle" depart="199.98" departLane="best" from="-37796658#15" to="37796658#7"/>
    <trip id="moto233" type="moto_motorcycle" depart="200.84" departLane="best" from="219299310" to="288143109#2"/>
    <trip id="moto234" type="moto_motorcycle" depart="201.70" departLane="best" from="219276440#7" to="27103295#4"/>
    <trip id="moto235" type="moto_motorcycle" depart="202.56" departLane="best" from="-28620463#2" to="28620287#1"/>
    <trip id="moto236" type="moto_motorcycle" depart="203.42" departLane="best" from="-38559007#0" to="-243463362#0"/>
    <trip id="moto237" type="moto_motorcycle" depart="204.29" departLane="best" from="-563882886#4" to="-450424472"/>
    <trip id="moto238" type="moto_motorcycle" depart="205.15" departLane="best" from="203195772#0" to="189482151#0"/>
    <trip id="moto239" type="moto_motorcycle" depart="206.01" departLane="best" from="38439200" to="-944535077"/>
    <trip id="moto240" type="moto_motorcycle" depart="206.87" departLane="best" from="219248031#0" to="289799958#1"/>
    <trip id="moto241" type="moto_motorcycle" depart="207.73" departLane="best" from="-37796658#0" to="28620287#1"/>
    <trip id="moto242" type="moto_motorcycle" depart="208.60" departLane="best" departSpeed="max" from="-917759317#1" to="-751924891#3"/>
    <trip id="moto243" type="moto_motorcycle" depart="209.46" departLane="best" from="230069300#4" to="-913205554"/>
    <trip id="moto244" type="moto_motorcycle" depart="210.32" departLane="best" from="-563882884#9" to="37742013#0"/>
    <trip id="moto245" type="moto_motorcycle" depart="211.18" departLane="best" departSpeed="max" from="-972842760" to="474807466#0"/>
    <trip id="moto246" type="moto_motorcycle" depart="212.04" departLane="best" from="923503445" to="243463367#1"/>
    <trip id="moto247" type="moto_motorcycle" depart="212.91" departLane="best" from="-37742076#0" to="-37796656#4"/>
    <trip id="moto248" type="moto_motorcycle" depart="213.77" departLane="best" from="70017904" to="27806441#4"/>
    <trip id="moto249" type="moto_motorcycle" depart="214.63" departLane="best" from="219402750#1" to="-232428522#2"/>
    <trip id="moto250" type="moto_motorcycle" depart="215.49" departLane="best" from="128395869#0" to="287533465#0"/>