<?xml version="1.0" encoding="UTF-8"?>
<!-- generated on 2022-07-14 11:41:22.354825 by osmWebWizard.py v1_12_0+0000-800cb422fa4
  options: 
-->
<routes xmlns:xsi="http://www.w3.org/2001/XMLSchema-instance" xsi:noNamespaceSchemaLocation="http://sumo.dlr.de/xsd/routes_file.xsd">
    <vType id="ped_pedestrian" vClass="pedestrian"/>
    <person id="ped0" depart="0.00" type="ped_pedestrian">
        <personTrip from="321457778#3" to="-189314896#1" modes="public"/>
    </person>
    <person id="ped1" depart="0.39" type="ped_pedestrian">
        <personTrip from="-606792754" to="-450362405" modes="public"/>
    </person>
    <person id="ped2" depart="0.79" type="ped_pedestrian">
        <personTrip from="447106283" to="356397723#1" modes="public"/>
    </person>
    <person id="ped3" depart="1.18" type="ped_pedestrian">
        <personTrip from="657562040#2" to="-218726132#0" modes="public"/>
    </person>
    <person id="ped4" depart="1.58" type="ped_pedestrian">
        <personTrip from="197554371" to="-192147573#0" modes="public"/>
    </person>
    <person id="ped5" depart="1.97" type="ped_pedestrian">
        <personTrip from="-450281024#2" to="217719123#1" modes="public"/>
    </person>
    <person id="ped6" depart="2.37" type="ped_pedestrian">
        <personTrip from="-189381389#0" to="-425963504" modes="public"/>
    </person>
    <person id="ped7" depart="2.76" type="ped_pedestrian">
        <personTrip from="336595514" to="231046268#2" modes="public"/>
    </person>
    <person id="ped8" depart="3.16" type="ped_pedestrian">
        <personTrip from="-450281046" to="254290188#0" modes="public"/>
    </person>
    <person id="ped9" depart="3.55" type="ped_pedestrian">
        <personTrip from="471814905#4" to="-108692733#6" modes="public"/>
    </person>
    <person id="ped10" depart="3.95" type="ped_pedestrian">
        <personTrip from="470073717" to="37796658#20" modes="public"/>
    </person>
    <person id="ped11" depart="4.34" type="ped_pedestrian">
        <personTrip from="-973429167" to="-343466395" modes="public"/>
    </person>
    <person id="ped12" depart="4.74" type="ped_pedestrian">
        <personTrip from="927290671#1" to="-972838166" modes="public"/>
    </person>
    <person id="ped13" depart="5.13" type="ped_pedestrian">
        <personTrip from="-219484107#1" to="-229807896#0" modes="public"/>
    </person>
    <person id="ped14" depart="5.53" type="ped_pedestrian">
        <personTrip from="504114517#1" to="285605895" modes="public"/>
    </person>
    <person id="ped15" depart="5.92" type="ped_pedestrian">
        <personTrip from="471664565#0" to="426013324" modes="public"/>
    </person>
    <person id="ped16" depart="6.32" type="ped_pedestrian">
        <personTrip from="229807944#2" to="944504843" modes="public"/>
    </person>
    <person id="ped17" depart="6.71" type="ped_pedestrian">
        <personTrip from="131452739#2" to="232299872#1" modes="public"/>
    </person>
    <person id="ped18" depart="7.11" type="ped_pedestrian">
        <personTrip from="485610706" to="287533469#3" modes="public"/>
    </person>
    <person id="ped19" depart="7.50" type="ped_pedestrian">
        <personTrip from="562621055" to="245395298#0" modes="public"/>
    </person>
    <person id="ped20" depart="7.90" type="ped_pedestrian">
        <personTrip from="37915939#0" to="-211061183#0" modes="public"/>
    </person>
    <person id="ped21" depart="8.29" type="ped_pedestrian">
        <personTrip from="-450429994" to="-906120388" modes="public"/>
    </person>
    <person id="ped22" depart="8.69" type="ped_pedestrian">
        <personTrip from="-217381145" to="-450506526" modes="public"/>
    </person>
    <person id="ped23" depart="9.08" type="ped_pedestrian">
        <personTrip from="-230069341" to="-618007993#1" modes="public"/>
    </person>
    <person id="ped24" depart="9.48" type="ped_pedestrian">
        <personTrip from="317876646#1" to="109195895" modes="public"/>
    </person>
    <person id="ped25" depart="9.87" type="ped_pedestrian">
        <personTrip from="126014308#1" to="-449279572" modes="public"/>
    </person>
    <person id="ped26" depart="10.27" type="ped_pedestrian">
        <personTrip from="-562626723#0" to="913205586" modes="public"/>
    </person>
    <person id="ped27" depart="10.66" type="ped_pedestrian">
        <personTrip from="328270950" to="285838892#5" modes="public"/>
    </person>
    <person id="ped28" depart="11.06" type="ped_pedestrian">
        <personTrip from="-37742032#1" to="425869939#1" modes="public"/>
    </person>
    <person id="ped29" depart="11.45" type="ped_pedestrian">
        <personTrip from="-356397901#0" to="131985983#0" modes="public"/>
    </person>
    <person id="ped30" depart="11.85" type="ped_pedestrian">
        <personTrip from="973005726" to="324909135#0" modes="public"/>
    </person>
    <person id="ped31" depart="12.24" type="ped_pedestrian">
        <personTrip from="235557839#0" to="356686666#0" modes="public"/>
    </person>
    <person id="ped32" depart="12.64" type="ped_pedestrian">
        <personTrip from="502433851#6" to="450501981" modes="public"/>
    </person>
    <person id="ped33" depart="13.03" type="ped_pedestrian">
        <personTrip from="-450430010" to="-192163599#1" modes="public"/>
    </person>
    <person id="ped34" depart="13.43" type="ped_pedestrian">
        <personTrip from="-926843801#1" to="-563882833" modes="public"/>
    </person>
    <person id="ped35" depart="13.82" type="ped_pedestrian">
        <personTrip from="-450126164" to="922017839#0" modes="public"/>
    </person>
    <person id="ped36" depart="14.22" type="ped_pedestrian">
        <personTrip from="606792718" to="-926787387#1" modes="public"/>
    </person>
    <person id="ped37" depart="14.61" type="ped_pedestrian">
        <personTrip from="354208743" to="189314824" modes="public"/>
    </person>
    <person id="ped38" depart="15.01" type="ped_pedestrian">
        <personTrip from="882045147" to="214434335#1" modes="public"/>
    </person>
    <person id="ped39" depart="15.40" type="ped_pedestrian">
        <personTrip from="-560511063" to="-471664591#1" modes="public"/>
    </person>
    <person id="ped40" depart="15.80" type="ped_pedestrian">
        <personTrip from="240740541#1" to="-527087894" modes="public"/>
    </person>
    <person id="ped41" depart="16.19" type="ped_pedestrian">
        <personTrip from="250304279" to="698137931#2" modes="public"/>
    </person>
    <person id="ped42" depart="16.59" type="ped_pedestrian">
        <personTrip from="189314877#1" to="-450281028#1" modes="public"/>
    </person>
    <person id="ped43" depart="16.98" type="ped_pedestrian">
        <personTrip from="976124205#1" to="218549587#1" modes="public"/>
    </person>
    <person id="ped44" depart="17.38" type="ped_pedestrian">
        <personTrip from="-219276440#7" to="-214434326#3" modes="public"/>
    </person>
    <person id="ped45" depart="17.77" type="ped_pedestrian">
        <personTrip from="-240825662#0" to="288047945" modes="public"/>
    </person>
    <person id="ped46" depart="18.17" type="ped_pedestrian">
        <personTrip from="453410338" to="197554387" modes="public"/>
    </person>
    <person id="ped47" depart="18.56" type="ped_pedestrian">
        <personTrip from="-216698222#1" to="142323364#0" modes="public"/>
    </person>
    <person id="ped48" depart="18.96" type="ped_pedestrian">
        <personTrip from="974106243" to="229629979#1" modes="public"/>
    </person>
    <person id="ped49" depart="19.35" type="ped_pedestrian">
        <personTrip from="942523949#0" to="562608541#0" modes="public"/>
    </person>
    <person id="ped50" depart="19.75" type="ped_pedestrian">
        <personTrip from="-126014323#1" to="412054547#2" modes="public"/>
    </person>
    <person id="ped51" depart="20.14" type="ped_pedestrian">
        <personTrip from="356398243#1" to="229807949#1" modes="public"/>
    </person>
    <person id="ped52" depart="20.54" type="ped_pedestrian">
        <personTrip from="-562626717" to="326309682#1" modes="public"/>
    </person>
    <person id="ped53" depart="20.93" type="ped_pedestrian">
        <personTrip from="-240825671#0" to="203671232#0" modes="public"/>
    </person>
    <person id="ped54" depart="21.33" type="ped_pedestrian">
        <personTrip from="210309588#1" to="927233835#2" modes="public"/>
    </person>
    <person id="ped55" depart="21.72" type="ped_pedestrian">
        <personTrip from="606792710#5" to="-527364325#0" modes="public"/>
    </person>
    <person id="ped56" depart="22.12" type="ped_pedestrian">
        <personTrip from="217352306#2" to="-37915931#0" modes="public"/>
    </person>
    <person id="ped57" depart="22.51" type="ped_pedestrian">
        <personTrip from="826365218#4" to="566658499" modes="public"/>
    </person>
    <person id="ped58" depart="22.91" type="ped_pedestrian">
        <personTrip from="-907710822" to="319654944#2" modes="public"/>
    </person>
    <person id="ped59" depart="23.30" type="ped_pedestrian">
        <personTrip from="285838892#2" to="-328270950" modes="public"/>
    </person>
    <person id="ped60" depart="23.70" type="ped_pedestrian">
        <personTrip from="450281046" to="230525842#2" modes="public"/>
    </person>
    <person id="ped61" depart="24.09" type="ped_pedestrian">
        <personTrip from="450506529" to="229807887#4" modes="public"/>
    </person>
    <person id="ped62" depart="24.49" type="ped_pedestrian">
        <personTrip from="-100706544#2" to="-941781014#1" modes="public"/>
    </person>
    <person id="ped63" depart="24.88" type="ped_pedestrian">
        <personTrip from="-189164776" to="907721062#2" modes="public"/>
    </person>
    <person id="ped64" depart="25.28" type="ped_pedestrian">
        <personTrip from="606792745#0" to="485965704" modes="public"/>
    </person>
    <person id="ped65" depart="25.67" type="ped_pedestrian">
        <personTrip from="-915346861" to="-216272426#0" modes="public"/>
    </person>
    <person id="ped66" depart="26.07" type="ped_pedestrian">
        <personTrip from="606792741#4" to="924848286#1" modes="public"/>
    </person>
    <person id="ped67" depart="26.46" type="ped_pedestrian">
        <personTrip from="-218549587#1" to="217350278#1" modes="public"/>
    </person>
    <person id="ped68" depart="26.86" type="ped_pedestrian">
        <personTrip from="-217350304#2" to="450281025#1" modes="public"/>
    </person>
    <person id="ped69" depart="27.25" type="ped_pedestrian">
        <personTrip from="450362393#1" to="-27882435#3" modes="public"/>
    </person>
    <person id="ped70" depart="27.65" type="ped_pedestrian">
        <personTrip from="216272456" to="232196313#24" modes="public"/>
    </person>
    <person id="ped71" depart="28.04" type="ped_pedestrian">
        <personTrip from="-561763665" to="599953140" modes="public"/>
    </person>
    <person id="ped72" depart="28.43" type="ped_pedestrian">
        <personTrip from="197554426#1" to="-450126200" modes="public"/>
    </person>
    <person id="ped73" depart="28.83" type="ped_pedestrian">
        <personTrip from="230525842#0" to="426043760#0" modes="public"/>
    </person>
    <person id="ped74" depart="29.22" type="ped_pedestrian">
        <personTrip from="-444048522" to="-924685615" modes="public"/>
    </person>
    <person id="ped75" depart="29.62" type="ped_pedestrian">
        <personTrip from="973918084" to="336595514" modes="public"/>
    </person>
    <person id="ped76" depart="30.01" type="ped_pedestrian">
        <personTrip from="205543036#2" to="219276448" modes="public"/>
    </person>
    <person id="ped77" depart="30.41" type="ped_pedestrian">
        <personTrip from="-252223474#2" to="-450424464" modes="public"/>
    </person>
    <person id="ped78" depart="30.80" type="ped_pedestrian">
        <personTrip from="-972905388#2" to="254290180#2" modes="public"/>
    </person>
    <person id="ped79" depart="31.20" type="ped_pedestrian">
        <personTrip from="-450433608#0" to="-450281041" modes="public"/>
    </person>
    <person id="ped80" depart="31.59" type="ped_pedestrian">
        <personTrip from="-217350321#0" to="302687396#1" modes="public"/>
    </person>
    <person id="ped81" depart="31.99" type="ped_pedestrian">
        <personTrip from="-450430009" to="772557203#0" modes="public"/>
    </person>
    <person id="ped82" depart="32.38" type="ped_pedestrian">
        <personTrip from="561912369#1" to="-217350316#1" modes="public"/>
    </person>
    <person id="ped83" depart="32.78" type="ped_pedestrian">
        <personTrip from="-451653288" to="356396296#0" modes="public"/>
    </person>
    <person id="ped84" depart="33.17" type="ped_pedestrian">
        <personTrip from="-450272543" to="-285776287#7" modes="public"/>
    </person>
    <person id="ped85" depart="33.57" type="ped_pedestrian">
        <personTrip from="913205556" to="244633514#2" modes="public"/>
    </person>
    <person id="ped86" depart="33.96" type="ped_pedestrian">
        <personTrip from="216272431" to="451610065" modes="public"/>
    </person>
    <person id="ped87" depart="34.36" type="ped_pedestrian">
        <personTrip from="471664572#0" to="-38445127" modes="public"/>
    </person>
    <person id="ped88" depart="34.75" type="ped_pedestrian">
        <personTrip from="-229807898" to="203432798#0" modes="public"/>
    </person>
    <person id="ped89" depart="35.15" type="ped_pedestrian">
        <personTrip from="200348191" to="216272339#10" modes="public"/>
    </person>
    <person id="ped90" depart="35.54" type="ped_pedestrian">
        <personTrip from="425869939#0" to="356396855" modes="public"/>
    </person>
    <person id="ped91" depart="35.94" type="ped_pedestrian">
        <personTrip from="951557132#1" to="-229807933#1" modes="public"/>
    </person>
    <person id="ped92" depart="36.33" type="ped_pedestrian">
        <personTrip from="189314913#0" to="-973024729#0" modes="public"/>
    </person>
    <person id="ped93" depart="36.73" type="ped_pedestrian">
        <personTrip from="562621054#0" to="-472105533" modes="public"/>
    </person>
    <person id="ped94" depart="37.12" type="ped_pedestrian">
        <personTrip from="-38133138#2" to="208928177#2" modes="public"/>
    </person>
    <person id="ped95" depart="37.52" type="ped_pedestrian">
        <personTrip from="197554368" to="-648917793#1" modes="public"/>
    </person>
    <person id="ped96" depart="37.91" type="ped_pedestrian">
        <personTrip from="-472144360#1" to="907262727" modes="public"/>
    </person>
    <person id="ped97" depart="38.31" type="ped_pedestrian">
        <personTrip from="207077195#0" to="562608554" modes="public"/>
    </person>
    <person id="ped98" depart="38.70" type="ped_pedestrian">
        <personTrip from="232196313#32" to="-214434389" modes="public"/>
    </person>
    <person id="ped99" depart="39.10" type="ped_pedestrian">
        <personTrip from="990874837" to="488271776#2" modes="public"/>
    </person>
    <person id="ped100" depart="39.49" type="ped_pedestrian">
        <personTrip from="942444598" to="907691718#4" modes="public"/>
    </person>
    <person id="ped101" depart="39.89" type="ped_pedestrian">
        <personTrip from="504209134#3" to="-358291502" modes="public"/>
    </person>
    <person id="ped102" depart="40.28" type="ped_pedestrian">
        <personTrip from="217350276#0" to="-450272537#1" modes="public"/>
    </person>
    <person id="ped103" depart="40.68" type="ped_pedestrian">
        <personTrip from="189314896#1" to="-216272437#0" modes="public"/>
    </person>
    <person id="ped104" depart="41.07" type="ped_pedestrian">
        <personTrip from="131859122" to="964698705" modes="public"/>
    </person>
    <person id="ped105" depart="41.47" type="ped_pedestrian">
        <personTrip from="-561763669#2" to="451610055" modes="public"/>
    </person>
    <person id="ped106" depart="41.86" type="ped_pedestrian">
        <personTrip from="211061179#1" to="197554426#0" modes="public"/>
    </person>
    <person id="ped107" depart="42.26" type="ped_pedestrian">
        <personTrip from="927290671#2" to="973918085#2" modes="public"/>
    </person>
    <person id="ped108" depart="42.65" type="ped_pedestrian">
        <personTrip from="234824540" to="38744118#8" modes="public"/>
    </person>
    <person id="ped109" depart="43.05" type="ped_pedestrian">
        <personTrip from="-343466386" to="-907691716" modes="public"/>
    </person>
    <person id="ped110" depart="43.44" type="ped_pedestrian">
        <personTrip from="942442904#1" to="245578197#2" modes="public"/>
    </person>
    <person id="ped111" depart="43.84" type="ped_pedestrian">
        <personTrip from="231046241" to="449218554" modes="public"/>
    </person>
    <person id="ped112" depart="44.23" type="ped_pedestrian">
        <personTrip from="-216272415" to="250304277#3" modes="public"/>
    </person>
    <person id="ped113" depart="44.63" type="ped_pedestrian">
        <personTrip from="217382821#1" to="527364326#1" modes="public"/>
    </person>
    <person id="ped114" depart="45.02" type="ped_pedestrian">
        <personTrip from="-356395826#3" to="927885897" modes="public"/>
    </person>
    <person id="ped115" depart="45.42" type="ped_pedestrian">
        <personTrip from="-217382814#1" to="-379971557#0" modes="public"/>
    </person>
    <person id="ped116" depart="45.81" type="ped_pedestrian">
        <personTrip from="27103340#2" to="356397518" modes="public"/>
    </person>
    <person id="ped117" depart="46.21" type="ped_pedestrian">
        <personTrip from="-451607344#1" to="-250304281#0" modes="public"/>
    </person>
    <person id="ped118" depart="46.60" type="ped_pedestrian">
        <personTrip from="626204463" to="-470073721#1" modes="public"/>
    </person>
    <person id="ped119" depart="47.00" type="ped_pedestrian">
        <personTrip from="27103295#2" to="287533496#0" modes="public"/>
    </person>
    <person id="ped120" depart="47.39" type="ped_pedestrian">
        <personTrip from="194841197#0" to="250304276#1" modes="public"/>
    </person>
    <person id="ped121" depart="47.79" type="ped_pedestrian">
        <personTrip from="226319817#6" to="913205545#2" modes="public"/>
    </person>
    <person id="ped122" depart="48.18" type="ped_pedestrian">
        <personTrip from="-447124993" to="38445363#0" modes="public"/>
    </person>
    <person id="ped123" depart="48.58" type="ped_pedestrian">
        <personTrip from="-451653573#0" to="189314826" modes="public"/>
    </person>
    <person id="ped124" depart="48.97" type="ped_pedestrian">
        <personTrip from="356396741#0" to="-907721064#1" modes="public"/>
    </person>
    <person id="ped125" depart="49.37" type="ped_pedestrian">
        <personTrip from="-926953876" to="450126174" modes="public"/>
    </person>
    <person id="ped126" depart="49.76" type="ped_pedestrian">
        <personTrip from="-217350334#2" to="214434326#4" modes="public"/>
    </person>
    <person id="ped127" depart="50.16" type="ped_pedestrian">
        <personTrip from="976731083#0" to="974106243" modes="public"/>
    </person>
    <person id="ped128" depart="50.55" type="ped_pedestrian">
        <personTrip from="-217350338#5" to="-450126250" modes="public"/>
    </person>
    <person id="ped129" depart="50.95" type="ped_pedestrian">
        <personTrip from="-561763669#2" to="913205527" modes="public"/>
    </person>
    <person id="ped130" depart="51.34" type="ped_pedestrian">
        <personTrip from="606792777#5" to="606792754" modes="public"/>
    </person>
    <person id="ped131" depart="51.74" type="ped_pedestrian">
        <personTrip from="126014296#1" to="-356396023" modes="public"/>
    </person>
    <person id="ped132" depart="52.13" type="ped_pedestrian">
        <personTrip from="488255350" to="37915929#2" modes="public"/>
    </person>
    <person id="ped133" depart="52.53" type="ped_pedestrian">
        <personTrip from="28620174" to="972827524" modes="public"/>
    </person>
    <person id="ped134" depart="52.92" type="ped_pedestrian">
        <personTrip from="349916661#1" to="-109195902#0" modes="public"/>
    </person>
    <person id="ped135" depart="53.32" type="ped_pedestrian">
        <personTrip from="472157812#0" to="-907721062#1" modes="public"/>
    </person>
    <person id="ped136" depart="53.71" type="ped_pedestrian">
        <personTrip from="356396097#1" to="915346856#0" modes="public"/>
    </person>
    <person id="ped137" depart="54.11" type="ped_pedestrian">
        <personTrip from="-285843194#1" to="-244114990#1" modes="public"/>
    </person>
    <person id="ped138" depart="54.50" type="ped_pedestrian">
        <personTrip from="-240740542" to="232317017" modes="public"/>
    </person>
    <person id="ped139" depart="54.90" type="ped_pedestrian">
        <personTrip from="-599893385" to="285732189" modes="public"/>
    </person>
    <person id="ped140" depart="55.29" type="ped_pedestrian">
        <personTrip from="38743647" to="-447124984" modes="public"/>
    </person>
    <person id="ped141" depart="55.69" type="ped_pedestrian">
        <personTrip from="317132602#2" to="-560404484#1" modes="public"/>
    </person>
    <person id="ped142" depart="56.08" type="ped_pedestrian">
        <personTrip from="217350291#1" to="772557200#1" modes="public"/>
    </person>
    <person id="ped143" depart="56.47" type="ped_pedestrian">
        <personTrip from="504000363" to="-219482031#1" modes="public"/>
    </person>
    <person id="ped144" depart="56.87" type="ped_pedestrian">
        <personTrip from="200348191" to="-606841715#2" modes="public"/>
    </person>
    <person id="ped145" depart="57.26" type="ped_pedestrian">
        <personTrip from="-1059072552" to="450429988" modes="public"/>
    </person>
    <person id="ped146" depart="57.66" type="ped_pedestrian">
        <personTrip from="318751458#1" to="-504000372#2" modes="public"/>
    </person>
    <person id="ped147" depart="58.05" type="ped_pedestrian">
        <personTrip from="449057073#1" to="232196317#6" modes="public"/>
    </person>
    <person id="ped148" depart="58.45" type="ped_pedestrian">
        <personTrip from="203188318" to="-126014268" modes="public"/>
    </person>
    <person id="ped149" depart="58.84" type="ped_pedestrian">
        <personTrip from="-217350340#7" to="606792795#5" modes="public"/>
    </person>
    <person id="ped150" depart="59.24" type="ped_pedestrian">
        <personTrip from="771366116#2" to="231046270#5" modes="public"/>
    </person>
    <person id="ped151" depart="59.63" type="ped_pedestrian">
        <personTrip from="488271755" to="250304269#0" modes="public"/>
    </person>
    <person id="ped152" depart="60.03" type="ped_pedestrian">
        <personTrip from="-321457780" to="-274469161#2" modes="public"/>
    </person>
    <person id="ped153" depart="60.42" type="ped_pedestrian">
        <personTrip from="-915382198#1" to="698804968#1" modes="public"/>
    </person>
    <person id="ped154" depart="60.82" type="ped_pedestrian">
        <personTrip from="454586898#5" to="562608537" modes="public"/>
    </person>
    <person id="ped155" depart="61.21" type="ped_pedestrian">
        <personTrip from="698804968#0" to="-449279617" modes="public"/>
    </person>
    <person id="ped156" depart="61.61" type="ped_pedestrian">
        <personTrip from="-472144359#1" to="-231947303#3" modes="public"/>
    </person>
    <person id="ped157" depart="62.00" type="ped_pedestrian">
        <personTrip from="450506549" to="606792815" modes="public"/>
    </person>
    <person id="ped158" depart="62.40" type="ped_pedestrian">
        <personTrip from="189615586#0" to="287653112#4" modes="public"/>
    </person>
    <person id="ped159" depart="62.79" type="ped_pedestrian">
        <personTrip from="-338222179" to="907725320" modes="public"/>
    </person>
    <person id="ped160" depart="63.19" type="ped_pedestrian">
        <personTrip from="562626725#2" to="945670232#0" modes="public"/>
    </person>
    <person id="ped161" depart="63.58" type="ped_pedestrian">
        <personTrip from="472105492" to="606792779#6" modes="public"/>
    </person>
    <person id="ped162" depart="63.98" type="ped_pedestrian">
        <personTrip from="-189314892#7" to="447106289" modes="public"/>
    </person>
    <person id="ped163" depart="64.37" type="ped_pedestrian">
        <personTrip from="-945712594" to="912194706" modes="public"/>
    </person>
    <person id="ped164" depart="64.77" type="ped_pedestrian">
        <personTrip from="470020241#0" to="562626722#0" modes="public"/>
    </person>
    <person id="ped165" depart="65.16" type="ped_pedestrian">
        <personTrip from="472105490" to="-562626717" modes="public"/>
    </person>
    <person id="ped166" depart="65.56" type="ped_pedestrian">
        <personTrip from="451652965" to="-240825649#0" modes="public"/>
    </person>
    <person id="ped167" depart="65.95" type="ped_pedestrian">
        <personTrip from="599953131#1" to="561899166#0" modes="public"/>
    </person>
    <person id="ped168" depart="66.35" type="ped_pedestrian">
        <personTrip from="-450359003" to="472144382#3" modes="public"/>
    </person>
    <person id="ped169" depart="66.74" type="ped_pedestrian">
        <personTrip from="214434358" to="-913205589" modes="public"/>
    </person>
    <person id="ped170" depart="67.14" type="ped_pedestrian">
        <personTrip from="453504983#1" to="-450429991#0" modes="public"/>
    </person>
    <person id="ped171" depart="67.53" type="ped_pedestrian">
        <personTrip from="-189314875#1" to="-41186071#2" modes="public"/>
    </person>
    <person id="ped172" depart="67.93" type="ped_pedestrian">
        <personTrip from="-943143834" to="562626724#2" modes="public"/>
    </person>
    <person id="ped173" depart="68.32" type="ped_pedestrian">
        <personTrip from="941379189" to="-649569791" modes="public"/>
    </person>
    <person id="ped174" depart="68.72" type="ped_pedestrian">
        <personTrip from="326309695" to="189314883" modes="public"/>
    </person>
    <person id="ped175" depart="69.11" type="ped_pedestrian">
        <personTrip from="945788714#2" to="229807944#2" modes="public"/>
    </person>
    <person id="ped176" depart="69.51" type="ped_pedestrian">
        <personTrip from="915346858#0" to="-244114990#0" modes="public"/>
    </person>
    <person id="ped177" depart="69.90" type="ped_pedestrian">
        <personTrip from="942449052" to="-37915929#3" modes="public"/>
    </person>
    <person id="ped178" depart="70.30" type="ped_pedestrian">
        <personTrip from="929830035" to="-562103005#3" modes="public"/>
    </person>
    <person id="ped179" depart="70.69" type="ped_pedestrian">
        <personTrip from="-240825649#4" to="203671229#1" modes="public"/>
    </person>
    <person id="ped180" depart="71.09" type="ped_pedestrian">
        <personTrip from="425869931#1" to="-926562632" modes="public"/>
    </person>
    <person id="ped181" depart="71.48" type="ped_pedestrian">
        <personTrip from="285776287#1" to="218816371#4" modes="public"/>
    </person>
    <person id="ped182" depart="71.88" type="ped_pedestrian">
        <personTrip from="184701791" to="245395288#8" modes="public"/>
    </person>
    <person id="ped183" depart="72.27" type="ped_pedestrian">
        <personTrip from="-48207769#0" to="37961038#1" modes="public"/>
    </person>
    <person id="ped184" depart="72.67" type="ped_pedestrian">
        <personTrip from="-101550845#0" to="907685854" modes="public"/>
    </person>
    <person id="ped185" depart="73.06" type="ped_pedestrian">
        <personTrip from="230069315#5" to="40179368#0" modes="public"/>
    </person>
    <person id="ped186" depart="73.46" type="ped_pedestrian">
        <personTrip from="449057080#1" to="356396662#4" modes="public"/>
    </person>
    <person id="ped187" depart="73.85" type="ped_pedestrian">
        <personTrip from="109195883#1" to="-217350308#1" modes="public"/>
    </person>
    <person id="ped188" depart="74.25" type="ped_pedestrian">
        <personTrip from="356396102#4" to="-944670671" modes="public"/>
    </person>
    <person id="ped189" depart="74.64" type="ped_pedestrian">
        <personTrip from="-926562635#0" to="504115627#0" modes="public"/>
    </person>
    <person id="ped190" depart="75.04" type="ped_pedestrian">
        <personTrip from="410070774#1" to="-907725321#0" modes="public"/>
    </person>
    <person id="ped191" depart="75.43" type="ped_pedestrian">
        <personTrip from="-918672066" to="191810967#1" modes="public"/>
    </person>
    <person id="ped192" depart="75.83" type="ped_pedestrian">
        <personTrip from="189314907#1" to="-907636109#2" modes="public"/>
    </person>
    <person id="ped193" depart="76.22" type="ped_pedestrian">
        <personTrip from="-27126743" to="195961351" modes="public"/>
    </person>
    <person id="ped194" depart="76.62" type="ped_pedestrian">
        <personTrip from="915434634" to="356397840#0" modes="public"/>
    </person>
    <person id="ped195" depart="77.01" type="ped_pedestrian">
        <personTrip from="766517162" to="287533404" modes="public"/>
    </person>
    <person id="ped196" depart="77.41" type="ped_pedestrian">
        <personTrip from="-912237920" to="232196304" modes="public"/>
    </person>
    <person id="ped197" depart="77.80" type="ped_pedestrian">
        <personTrip from="-100706544#13" to="-838441687" modes="public"/>
    </person>
    <person id="ped198" depart="78.20" type="ped_pedestrian">
        <personTrip from="203272107#0" to="250304242" modes="public"/>
    </person>
    <person id="ped199" depart="78.59" type="ped_pedestrian">
        <personTrip from="350274427#1" to="215261219#2" modes="public"/>
    </person>
    <person id="ped200" depart="78.99" type="ped_pedestrian">
        <personTrip from="206948832#0" to="-450272537#1" modes="public"/>
    </person>