<?xml version="1.0" encoding="UTF-8"?>

<!-- generated on 2022-07-14 11:39:47 by Eclipse SUMO duarouter Version 1.12.0
<configuration xmlns:xsi="http://www.w3.org/2001/XMLSchema-instance" xsi:noNamespaceSchemaLocation="http://sumo.dlr.de/xsd/duarouterConfiguration.xsd">

    <input>
        <net-file value="C:\Users\Danton%20Moura\Sumo\2022-07-14-11-34-33\osm.net.xml"/>
        <route-files value="C:\Users\Danton%20Moura\Sumo\2022-07-14-11-34-33\osm.bus.trips.xml"/>
    </input>

    <output>
        <output-file value="C:\Users\Danton%20Moura\Sumo\2022-07-14-11-34-33\osm.bus.trips.xml.tmp"/>
        <write-trips value="true"/>
    </output>

    <time>
        <begin value="0"/>
        <end value="3600"/>
    </time>

    <report>
        <no-warnings value="true"/>
        <ignore-errors value="true"/>
        <no-step-log value="true"/>
    </report>

</configuration>
-->

<routes xmlns:xsi="http://www.w3.org/2001/XMLSchema-instance" xsi:noNamespaceSchemaLocation="http://sumo.dlr.de/xsd/routes_file.xsd">
    <vType id="bus_bus" vClass="bus"/>
    <trip id="bus0" type="bus_bus" depart="0.00" departLane="best" from="287653112#5" to="-188338102#2"/>
    <trip id="bus1" type="bus_bus" depart="0.86" departLane="best" from="-654094713#1" to="-444048536#0"/>
    <trip id="bus2" type="bus_bus" depart="1.71" departLane="best" from="37742010#1" to="356396741#2"/>
    <trip id="bus3" type="bus_bus" depart="2.57" departLane="best" from="563882885#1" to="-230069323"/>
    <trip id="bus4" type="bus_bus" depart="3.43" departLane="best" from="184698325#0" to="-189482151#2"/>
    <trip id="bus5" type="bus_bus" depart="4.29" departLane="best" from="-38400109#1" to="240825673#2"/>
    <trip id="bus6" type="bus_bus" depart="5.14" departLane="best" from="-180252963#0" to="-38400073"/>
    <trip id="bus7" type="bus_bus" depart="6.00" departLane="best" from="288207531#0" to="27882511"/>
    <trip id="bus8" type="bus_bus" depart="6.86" departLane="best" from="-38434961#2" to="287533473#3"/>
    <trip id="bus9" type="bus_bus" depart="7.72" departLane="best" from="41186071#2" to="-108643681#2"/>
    <trip id="bus10" type="bus_bus" depart="8.57" departLane="best" from="394374175#1" to="37742010#5"/>
    <trip id="bus12" type="bus_bus" depart="10.29" departLane="best" from="927275659" to="127108245#5"/>
    <trip id="bus13" type="bus_bus" depart="11.15" departLane="best" departSpeed="max" from="-229187848#2" to="-27317400#2"/>
    <trip id="bus14" type="bus_bus" depart="12.00" departLane="best" from="470020238#2" to="288207529#0"/>
    <trip id="bus15" type="bus_bus" depart="12.86" departLane="best" from="398533896" to="38092282"/>
    <trip id="bus16" type="bus_bus" depart="13.72" departLane="best" from="229038418#1" to="944504842#1"/>
    <trip id="bus17" type="bus_bus" depart="14.58" departLane="best" from="108636198" to="285515346"/>
    <trip id="bus18" type="bus_bus" depart="15.43" departLane="best" from="451652920#0" to="318751461#1"/>
    <trip id="bus19" type="bus_bus" depart="16.29" departLane="best" from="477756833#0" to="286669406#2"/>
    <trip id="bus20" type="bus_bus" depart="17.15" departLane="best" from="356396124#1" to="-203432805#0"/>
    <trip id="bus22" type="bus_bus" depart="18.86" departLane="best" from="-219482027#9" to="-490114475#0"/>
    <trip id="bus23" type="bus_bus" depart="19.72" departLane="best" from="-243800327#1" to="-927281253#2"/>
    <trip id="bus24" type="bus_bus" depart="20.58" departLane="best" from="287533472" to="184698341#1"/>
    <trip id="bus25" type="bus_bus" depart="21.44" departLane="best" from="100297577#4" to="-38559160#3"/>
    <trip id="bus26" type="bus_bus" depart="22.29" departLane="best" from="-563882873#2" to="928452115#0"/>
    <trip id="bus27" type="bus_bus" depart="23.15" departLane="best" from="288207510#4" to="29221873"/>
    <trip id="bus28" type="bus_bus" depart="24.01" departLane="best" from="-356397346#0" to="37961054#2"/>
    <trip id="bus29" type="bus_bus" depart="24.87" departLane="best" from="-326955676#5" to="189482151#2"/>
    <trip id="bus30" type="bus_bus" depart="25.72" departLane="best" from="945689815#1" to="329357100"/>
    <trip id="bus31" type="bus_bus" depart="26.58" departLane="best" from="232428522#1" to="356397990#3"/>
    <trip id="bus32" type="bus_bus" depart="27.44" departLane="best" from="454586902#1" to="444048529#2"/>
    <trip id="bus33" type="bus_bus" depart="28.30" departLane="best" departSpeed="max" from="-38559789#5" to="-191322065#4"/>
    <trip id="bus34" type="bus_bus" depart="29.15" departLane="best" departSpeed="max" from="-938299491#2" to="-924060098#1"/>
    <trip id="bus35" type="bus_bus" depart="30.01" departLane="best" from="-37961056#1" to="93622757"/>
    <trip id="bus36" type="bus_bus" depart="30.87" departLane="best" from="561912361" to="106196921#0"/>
    <trip id="bus37" type="bus_bus" depart="31.73" departLane="best" from="29501969" to="192147559#1"/>
    <trip id="bus38" type="bus_bus" depart="32.58" departLane="best" departSpeed="max" from="88149824#0" to="219482012#4"/>
    <trip id="bus39" type="bus_bus" depart="33.44" departLane="best" from="-563882839#1" to="-563882897"/>
    <trip id="bus40" type="bus_bus" depart="34.30" departLane="best" from="244685950" to="-917700535"/>
    <trip id="bus41" type="bus_bus" depart="35.15" departLane="best" departSpeed="max" from="27318561#0" to="922430248"/>
    <trip id="bus42" type="bus_bus" depart="36.01" departLane="best" from="130581733" to="-394126138"/>
    <trip id="bus43" type="bus_bus" depart="36.87" departLane="best" from="97503980#2" to="244757060#0"/>
    <trip id="bus44" type="bus_bus" depart="37.73" departLane="best" from="-229038413#1" to="-203432813#7"/>
    <trip id="bus45" type="bus_bus" depart="38.58" departLane="best" departSpeed="max" from="-247241640" to="326467636#1"/>
    <trip id="bus46" type="bus_bus" depart="39.44" departLane="best" from="38558756#1" to="208654363"/>
    <trip id="bus47" type="bus_bus" depart="40.30" departLane="best" from="-219299308#1" to="189615590#1"/>
    <trip id="bus48" type="bus_bus" depart="41.16" departLane="best" departSpeed="max" from="973444131" to="27126273"/>
    <trip id="bus49" type="bus_bus" depart="42.01" departLane="best" from="-127088647#5" to="37796664"/>
    <trip id="bus50" type="bus_bus" depart="42.87" departLane="best" from="329357098#0" to="27318178#5"/>
    <trip id="bus51" type="bus_bus" depart="43.73" departLane="best" from="-563882873#1" to="329357104"/>
    <trip id="bus52" type="bus_bus" depart="44.59" departLane="best" from="-27184845#1" to="219006067#1"/>
    <trip id="bus54" type="bus_bus" depart="46.30" departLane="best" from="561912357#1" to="-917804921"/>
    <trip id="bus55" type="bus_bus" depart="47.16" departLane="best" from="219299311#4" to="-37796658#3"/>
    <trip id="bus56" type="bus_bus" depart="48.02" departLane="best" from="785755603" to="698131980"/>
    <trip id="bus57" type="bus_bus" depart="48.87" departLane="best" from="-924060098#1" to="329298641"/>
    <trip id="bus58" type="bus_bus" depart="49.73" departLane="best" departSpeed="max" from="28620453#0" to="-356397770#0"/>
    <trip id="bus59" type="bus_bus" depart="50.59" departLane="best" from="37911117#1" to="27369582#1"/>
    <trip id="bus60" type="bus_bus" depart="51.45" departLane="best" from="38133119#3" to="27126510#1"/>
    <trip id="bus61" type="bus_bus" depart="52.30" departLane="best" from="-100706544#13" to="118466885"/>
    <trip id="bus62" type="bus_bus" depart="53.16" departLane="best" from="-127108247#4" to="927365543"/>
    <trip id="bus63" type="bus_bus" depart="54.02" departLane="best" from="562214262" to="504114515#2"/>
    <trip id="bus64" type="bus_bus" depart="54.88" departLane="best" from="-926832230#1" to="-219299311#6"/>
    <trip id="bus65" type="bus_bus" depart="55.73" departLane="best" from="562214258#0" to="938792177"/>
    <trip id="bus66" type="bus_bus" depart="56.59" departLane="best" from="-219673759#6" to="229187741#6"/>
    <trip id="bus67" type="bus_bus" depart="57.45" departLane="best" from="-219477653#4" to="394374175#0"/>
    <trip id="bus68" type="bus_bus" depart="58.31" departLane="best" from="37916008#3" to="-288143113#5"/>
    <trip id="bus69" type="bus_bus" depart="59.16" departLane="best" from="208141660#0" to="279872193#2"/>
    <trip id="bus70" type="bus_bus" depart="60.02" departLane="best" from="-563882839#3" to="698804973#2"/>
    <trip id="bus71" type="bus_bus" depart="60.88" departLane="best" departSpeed="max" from="184698341#0" to="-38559777"/>
    <trip id="bus72" type="bus_bus" depart="61.74" departLane="best" from="229187744#2" to="38092286#2"/>
    <trip id="bus73" type="bus_bus" depart="62.59" departLane="best" from="-37796658#4" to="101566832#1"/>
    <trip id="bus74" type="bus_bus" depart="63.45" departLane="best" from="972928202" to="356395978#1"/>
    <trip id="bus75" type="bus_bus" depart="64.31" departLane="best" from="189482149#4" to="247241637"/>
    <trip id="bus76" type="bus_bus" depart="65.17" departLane="best" departSpeed="max" from="-28620234" to="-450126187"/>
    <trip id="bus77" type="bus_bus" depart="66.02" departLane="best" departSpeed="max" from="-942471094" to="287533469#1"/>
    <trip id="bus78" type="bus_bus" depart="66.88" departLane="best" from="-38559841#9" to="-394374179#1"/>
    <trip id="bus79" type="bus_bus" depart="67.74" departLane="best" from="-219481995#2" to="326538547#7"/>
    <trip id="bus80" type="bus_bus" depart="68.59" departLane="best" departSpeed="max" from="-38559789#5" to="924713343"/>
    <trip id="bus81" type="bus_bus" depart="69.45" departLane="best" from="477174192#0" to="-219482025#1"/>
    <trip id="bus82" type="bus_bus" depart="70.31" departLane="best" departSpeed="max" from="-424433549" to="356396464"/>
    <trip id="bus83" type="bus_bus" depart="71.17" departLane="best" from="-38133101" to="-288207531#1"/>
    <trip id="bus84" type="bus_bus" depart="72.02" departLane="best" from="924511678" to="28620905#0"/>
    <trip id="bus85" type="bus_bus" depart="72.88" departLane="best" from="206948836#1" to="449279595#3"/>
    <trip id="bus86" type="bus_bus" depart="73.74" departLane="best" from="399157317#0" to="-38133073#1"/>
    <trip id="bus87" type="bus_bus" depart="74.60" departLane="best" from="-230069300#3" to="217449604#1"/>
    <trip id="bus88" type="bus_bus" depart="75.45" departLane="best" from="184701785" to="219484114"/>
    <trip id="bus89" type="bus_bus" depart="76.31" departLane="best" from="357280600#2" to="356396649#1"/>
    <trip id="bus90" type="bus_bus" depart="77.17" departLane="best" departSpeed="max" from="944504837" to="-27318685"/>
    <trip id="bus91" type="bus_bus" depart="78.03" departLane="best" from="130695683#2" to="130581733"/>
    <trip id="bus92" type="bus_bus" depart="78.88" departLane="best" from="477756833#0" to="-59741729#0"/>
    <trip id="bus93" type="bus_bus" depart="79.74" departLane="best" from="-37742071#2" to="219436043#1"/>
    <trip id="bus94" type="bus_bus" depart="80.60" departLane="best" from="180258373" to="-927291185"/>
    <trip id="bus95" type="bus_bus" depart="81.46" departLane="best" from="-451653517" to="927256246"/>
    <trip id="bus96" type="bus_bus" depart="82.31" departLane="best" from="191322079#2" to="599087923#0"/>
    <trip id="bus97" type="bus_bus" depart="83.17" departLane="best" from="229493764#2" to="-212192138#0"/>
    <trip id="bus98" type="bus_bus" depart="84.03" departLane="best" from="98557290#0" to="561899145#1"/>
    <trip id="bus99" type="bus_bus" depart="84.89" departLane="best" from="928685519#1" to="927278995#1"/>
    <trip id="bus100" type="bus_bus" depart="85.74" departLane="best" from="470020248#0" to="-37742067#0"/>
    <trip id="bus101" type="bus_bus" depart="86.60" departLane="best" from="217381145" to="-38559841#6"/>
    <trip id="bus102" type="bus_bus" depart="87.46" departLane="best" from="130597778" to="-219299319#3"/>
    <trip id="bus103" type="bus_bus" depart="88.32" departLane="best" from="108636200#13" to="971493957"/>
    <trip id="bus104" type="bus_bus" depart="89.17" departLane="best" from="-563882840#0" to="449279595#0"/>
    <trip id="bus105" type="bus_bus" depart="90.03" departLane="best" departSpeed="max" from="200348191" to="208928181"/>
    <trip id="bus106" type="bus_bus" depart="90.89" departLane="best" from="927278995#0" to="975886467"/>
    <trip id="bus107" type="bus_bus" depart="91.75" departLane="best" from="231046267#1" to="37796658#5"/>
    <trip id="bus108" type="bus_bus" depart="92.60" departLane="best" from="-318751457#1" to="-944584432#0"/>
    <trip id="bus109" type="bus_bus" depart="93.46" departLane="best" from="928685518#0" to="28674772#2"/>
    <trip id="bus110" type="bus_bus" depart="94.32" departLane="best" from="229187794#0" to="38451283#1"/>
    <trip id="bus111" type="bus_bus" depart="95.18" departLane="best" from="-215412401#1" to="287533411#1"/>
    <trip id="bus112" type="bus_bus" depart="96.03" departLane="best" from="219402750#1" to="563882871#0"/>
    <trip id="bus113" type="bus_bus" depart="96.89" departLane="best" from="-326126552#2" to="942089592#0"/>
    <trip id="bus114" type="bus_bus" depart="97.75" departLane="best" from="-219482028#2" to="-37915998"/>
    <trip id="bus115" type="bus_bus" depart="98.61" departLane="best" from="27925181#0" to="356396676#2"/>
    <trip id="bus116" type="bus_bus" depart="99.46" departLane="best" from="-394139177#0" to="-28620914#6"/>
    <trip id="bus117" type="bus_bus" depart="100.32" departLane="best" from="563882873#3" to="-563882888#1"/>
    <trip id="bus118" type="bus_bus" depart="101.18" departLane="best" departSpeed="max" from="27925136" to="321457778#2"/>
    <trip id="bus119" type="bus_bus" depart="102.03" departLane="best" from="170334948#0" to="287533404"/>
    <trip id="bus120" type="bus_bus" depart="102.89" departLane="best" from="219699054#0" to="927874356"/>
    <trip id="bus121" type="bus_bus" depart="103.75" departLane="best" from="-37796670" to="37796656#6"/>
    <trip id="bus122" type="bus_bus" depart="104.61" departLane="best" from="-425820797#0" to="192147559#3"/>
    <trip id="bus123" type="bus_bus" depart="105.46" departLane="best" from="326538544#0" to="-945712595"/>
    <trip id="bus124" type="bus_bus" depart="106.32" departLane="best" departSpeed="max" from="-938299494#1" to="38559789#5"/>
    <trip id="bus125" type="bus_bus" depart="107.18" departLane="best" from="-219482000#0" to="219482011#3"/>
    <trip id="bus126" type="bus_bus" depart="108.04" departLane="best" from="97503984#5" to="976370159"/>
    <trip id="bus127" type="bus_bus" depart="108.89" departLane="best" from="-219482003#2" to="-38559841#1"/>
    <trip id="bus128" type="bus_bus" depart="109.75" departLane="best" from="-563882840#0" to="927819390"/>
    <trip id="bus130" type="bus_bus" depart="111.47" departLane="best" from="-99045290#2" to="-37739371"/>
    <trip id="bus131" type="bus_bus" depart="112.32" departLane="best" from="451653153#1" to="37742053#4"/>
    <trip id="bus132" type="bus_bus" depart="113.18" departLane="best" departSpeed="max" from="28620543" to="972928203#1"/>
    <trip id="bus133" type="bus_bus" depart="114.04" departLane="best" from="29209352#0" to="-126665636#0"/>
    <trip id="bus134" type="bus_bus" depart="114.90" departLane="best" from="444048506" to="-945712592"/>
    <trip id="bus135" type="bus_bus" depart="115.75" departLane="best" from="326126526#1" to="928685519#1"/>
    <trip id="bus136" type="bus_bus" depart="116.61" departLane="best" from="-28620932#6" to="-28620752#4"/>
    <trip id="bus137" type="bus_bus" depart="117.47" departLane="best" from="-247241633#2" to="285557617#1"/>
    <trip id="bus138" type="bus_bus" depart="118.33" departLane="best" departSpeed="max" from="-564110265" to="288207540"/>
    <trip id="bus139" type="bus_bus" depart="119.18" departLane="best" from="356396662#7" to="-38438035#0"/>
    <trip id="bus140" type="bus_bus" depart="120.04" departLane="best" from="287533465#1" to="-918219947"/>
    <trip id="bus141" type="bus_bus" depart="120.90" departLane="best" from="218873867#0" to="924713343"/>
    <trip id="bus142" type="bus_bus" depart="121.76" departLane="best" from="470020230#1" to="-245219170#0"/>
    <trip id="bus143" type="bus_bus" depart="122.61" departLane="best" from="184701785" to="-927254723"/>
    <trip id="bus144" type="bus_bus" depart="123.47" departLane="best" from="-103892206#5" to="439824072#3"/>
    <trip id="bus145" type="bus_bus" depart="124.33" departLane="best" from="287533479" to="-917387138#1"/>
    <trip id="bus146" type="bus_bus" depart="125.19" departLane="best" from="37742052#1" to="28545496#3"/>
    <trip id="bus147" type="bus_bus" depart="126.04" departLane="best" from="186988609#2" to="-127088644#0"/>
    <trip id="bus148" type="bus_bus" depart="126.90" departLane="best" from="-219482011#0" to="887911209#3"/>
    <trip id="bus149" type="bus_bus" depart="127.76" departLane="best" from="698137930" to="27882529#1"/>
    <trip id="bus150" type="bus_bus" depart="128.62" departLane="best" from="451653379" to="287381254#0"/>
    <trip id="bus151" type="bus_bus" depart="129.47" departLane="best" from="-288207517#7" to="-288143108#0"/>
    <trip id="bus152" type="bus_bus" depart="130.33" departLane="best" from="-926872807" to="923478228#2"/>
    <trip id="bus153" type="bus_bus" depart="131.19" departLane="best" from="38559789#1" to="59741730#1"/>
    <trip id="bus154" type="bus_bus" depart="132.05" departLane="best" from="612442387" to="-38559417#1"/>
    <trip id="bus155" type="bus_bus" depart="132.90" departLane="best" from="-451653516#0" to="-27925136"/>
    <trip id="bus156" type="bus_bus" depart="133.76" departLane="best" from="38133138#2" to="895913152#0"/>
    <trip id="bus157" type="bus_bus" depart="134.62" departLane="best" from="131452739#1" to="326126529"/>
    <trip id="bus158" type="bus_bus" depart="135.47" departLane="best" departSpeed="max" from="-318751453#3" to="927753725"/>
    <trip id="bus159" type="bus_bus" depart="136.33" departLane="best" from="48156216" to="944584425"/>
    <trip id="bus160" type="bus_bus" depart="137.19" departLane="best" from="415931797" to="828534040"/>
    <trip id="bus161" type="bus_bus" depart="138.05" departLane="best" from="-132431028#2" to="38133133#0"/>
    <trip id="bus162" type="bus_bus" depart="138.90" departLane="best" from="-942089592#0" to="927790174#0"/>
    <trip id="bus164" type="bus_bus" depart="140.62" departLane="best" from="413773901#1" to="-923613007"/>
    <trip id="bus165" type="bus_bus" depart="141.48" departLane="best" from="38438991#1" to="-28620324"/>
    <trip id="bus166" type="bus_bus" depart="142.33" departLane="best" from="504209134#4" to="564110270#0"/>
    <trip id="bus167" type="bus_bus" depart="143.19" departLane="best" from="-38438991#2" to="471664591#1"/>
    <trip id="bus168" type="bus_bus" depart="144.05" departLane="best" from="203246486#0" to="-973444131"/>
    <trip id="bus169" type="bus_bus" depart="144.91" departLane="best" departSpeed="max" from="38559777" to="-451653408"/>
    <trip id="bus170" type="bus_bus" depart="145.76" departLane="best" departSpeed="max" from="-132426247#2" to="-38133094#0"/>
    <trip id="bus171" type="bus_bus" depart="146.62" departLane="best" departSpeed="max" from="-941745876" to="635793743"/>
    <trip id="bus172" type="bus_bus" depart="147.48" departLane="best" from="928484643" to="-927753726"/>
    <trip id="bus173" type="bus_bus" depart="148.34" departLane="best" from="287754931#5" to="193079351#3"/>
    <trip id="bus174" type="bus_bus" depart="149.19" departLane="best" departSpeed="max" from="941748439" to="27318005"/>
    <trip id="bus175" type="bus_bus" depart="150.05" departLane="best" from="924860051" to="-28620752#3"/>
    <trip id="bus176" type="bus_bus" depart="150.91" departLane="best" from="929879440" to="-37796658#21"/>
    <trip id="bus177" type="bus_bus" depart="151.77" departLane="best" from="927799134" to="-920646283"/>
    <trip id="bus178" type="bus_bus" depart="152.62" departLane="best" departSpeed="max" from="-247241638" to="219001624"/>
    <trip id="bus179" type="bus_bus" depart="153.48" departLane="best" from="28620299#1" to="247241616#1"/>
    <trip id="bus180" type="bus_bus" depart="154.34" departLane="best" from="118466882#0" to="286586451"/>
    <trip id="bus181" type="bus_bus" depart="155.20" departLane="best" departSpeed="max" from="-48156213" to="37795643#0"/>
    <trip id="bus182" type="bus_bus" depart="156.05" departLane="best" from="-100706544#9" to="927264665"/>
    <trip id="bus183" type="bus_bus" depart="156.91" departLane="best" from="229187741#2" to="37796659#8"/>
    <trip id="bus184" type="bus_bus" depart="157.77" departLane="best" from="37742054#2" to="356396573"/>
    <trip id="bus185" type="bus_bus" depart="158.63" departLane="best" departSpeed="max" from="-97503980#7" to="-219482020#5"/>
    <trip id="bus186" type="bus_bus" depart="159.48" departLane="best" from="326126552#3" to="127088648#6"/>
    <trip id="bus187" type="bus_bus" depart="160.34" departLane="best" departSpeed="max" from="-93622755" to="563368155"/>
    <trip id="bus188" type="bus_bus" depart="161.20" departLane="best" from="356396741#2" to="-945722743#0"/>
    <trip id="bus189" type="bus_bus" depart="162.06" departLane="best" departSpeed="max" from="-927254722" to="203432801#0"/>
    <trip id="bus190" type="bus_bus" depart="162.91" departLane="best" from="130695683#0" to="-944535071"/>
    <trip id="bus191" type="bus_bus" depart="163.77" departLane="best" from="-28620701#3" to="208354790#0"/>
    <trip id="bus192" type="bus_bus" depart="164.63" departLane="best" from="925023199" to="356396741#9"/>
    <trip id="bus193" type="bus_bus" depart="165.49" departLane="best" from="68915532" to="317876646#0"/>
    <trip id="bus194" type="bus_bus" depart="166.34" departLane="best" from="-924719875" to="27925181#0"/>
    <trip id="bus195" type="bus_bus" depart="167.20" departLane="best" from="-100706544#12" to="-941669083"/>
    <trip id="bus196" type="bus_bus" depart="168.06" departLane="best" from="188847990#0" to="28675176"/>
    <trip id="bus197" type="bus_bus" depart="168.91" departLane="best" from="191322064#1" to="-38559841#6"/>
    <trip id="bus198" type="bus_bus" depart="169.77" departLane="best" from="206948838#2" to="924328522"/>
    <trip id="bus199" type="bus_bus" depart="170.63" departLane="best" from="38559789#0" to="-37795648#1"/>
    <trip id="bus200" type="bus_bus" depart="171.49" departLane="best" from="-219673759#1" to="247241629#0"/>
    <trip id="bus201" type="bus_bus" depart="172.34" departLane="best" from="287533429#2" to="127108236#9"/>
    <trip id="bus202" type="bus_bus" depart="173.20" departLane="best" from="444048529#4" to="38559509#3"/>
    <trip id="bus203" type="bus_bus" depart="174.06" departLane="best" from="326538547#4" to="-450126187"/>
    <trip id="bus204" type="bus_bus" depart="174.92" departLane="best" from="-37796656#8" to="-186936338#1"/>
    <trip id="bus205" type="bus_bus" depart="175.77" departLane="best" from="-449279595#1" to="220083134#2"/>
    <trip id="bus206" type="bus_bus" depart="176.63" departLane="best" from="470020279" to="-219482031#3"/>
    <trip id="bus207" type="bus_bus" depart="177.49" departLane="best" from="132557136" to="326538544#0"/>
    <trip id="bus208" type="bus_bus" depart="178.35" departLane="best" departSpeed="max" from="-37795675#1" to="37742002#0"/>
    <trip id="bus209" type="bus_bus" depart="179.20" departLane="best" from="219150318#0" to="-563882879"/>
    <trip id="bus210" type="bus_bus" depart="180.06" departLane="best" from="295041076#3" to="-108636200#13"/>
    <trip id="bus211" type="bus_bus" depart="180.92" departLane="best" from="37795667#2" to="439824071#2"/>
    <trip id="bus212" type="bus_bus" depart="181.78" departLane="best" departSpeed="max" from="-247241629#1" to="215412401#1"/>
    <trip id="bus213" type="bus_bus" depart="182.63" departLane="best" from="-356398400#1" to="941813594"/>
    <trip id="bus214" type="bus_bus" depart="183.49" departLane="best" from="219482031#5" to="-208928171"/>
    <trip id="bus215" type="bus_bus" depart="184.35" departLane="best" departSpeed="max" from="-451653433" to="563368155"/>
    <trip id="bus216" type="bus_bus" depart="185.21" departLane="best" from="203195761#15" to="451653591#0"/>
    <trip id="bus217" type="bus_bus" depart="186.06" departLane="best" from="326309727#0" to="973018048"/>
    <trip id="bus218" type="bus_bus" depart="186.92" departLane="best" from="27925219#0" to="941198117"/>
    <trip id="bus219" type="bus_bus" depart="187.78" departLane="best" from="563882884#2" to="295701554"/>
    <trip id="bus220" type="bus_bus" depart="188.64" departLane="best" from="356396702" to="234014164#3"/>
    <trip id="bus221" type="bus_bus" depart="189.49" departLane="best" from="451652972#1" to="27925178#1"/>
    <trip id="bus222" type="bus_bus" depart="190.35" departLane="best" from="606416582#0" to="38437357"/>
    <trip id="bus223" type="bus_bus" depart="191.21" departLane="best" from="208004244" to="-913205562"/>
    <trip id="bus224" type="bus_bus" depart="192.07" departLane="best" from="-451652976#2" to="326955679"/>
    <trip id="bus225" type="bus_bus" depart="192.92" departLane="best" from="37916008#3" to="253257588"/>
    <trip id="bus226" type="bus_bus" depart="193.78" departLane="best" from="286669407#2" to="-926843801#1"/>
    <trip id="bus227" type="bus_bus" depart="194.64" departLane="best" from="-219482020#2" to="-938808768"/>
    <trip id="bus228" type="bus_bus" depart="195.50" departLane="best" from="-563882910" to="108692728#1"/>
    <trip id="bus229" type="bus_bus" depart="196.35" departLane="best" from="229187757#2" to="-326309678"/>
    <trip id="bus230" type="bus_bus" depart="197.21" departLane="best" from="-38654297#2" to="37660508#1"/>
    <trip id="bus231" type="bus_bus" depart="198.07" departLane="best" from="356396177#1" to="-219481997"/>
    <trip id="bus232" type="bus_bus" depart="198.93" departLane="best" from="131975114#1" to="27882432#2"/>
    <trip id="bus233" type="bus_bus" depart="199.78" departLane="best" from="134811489#1" to="-38558196#0"/>
    <trip id="bus234" type="bus_bus" depart="200.64" departLane="best" from="171797495#3" to="924697642"/>
    <trip id="bus235" type="bus_bus" depart="201.50" departLane="best" departSpeed="max" from="27318456" to="37741991"/>
    <trip id="bus236" type="bus_bus" depart="202.35" departLane="best" departSpeed="max" from="108650755" to="-108636200#6"/>
    <trip id="bus237" type="bus_bus" depart="203.21" departLane="best" departSpeed="max" from="-944670667" to="38606825#0"/>
    <trip id="bus238" type="bus_bus" depart="204.07" departLane="best" from="471664564#2" to="941720676"/>
    <trip id="bus239" type="bus_bus" depart="204.93" departLane="best" from="168522566" to="38449313#1"/>
    <trip id="bus240" type="bus_bus" depart="205.78" departLane="best" from="229360334#3" to="288207517#5"/>
    <trip id="bus241" type="bus_bus" depart="206.64" departLane="best" from="-38434961#4" to="-394139177#0"/>
    <trip id="bus242" type="bus_bus" depart="207.50" departLane="best" from="189381384#0" to="-189482149#1"/>
    <trip id="bus243" type="bus_bus" depart="208.36" departLane="best" departSpeed="max" from="-942449053" to="356396989"/>
    <trip id="bus244" type="bus_bus" depart="209.21" departLane="best" from="131235008#5" to="-37742053#2"/>
    <trip id="bus245" type="bus_bus" depart="210.07" departLane="best" from="205385525#0" to="-288143108#2"/>
    <trip id="bus247" type="bus_bus" depart="211.79" departLane="best" from="127108236#1" to="28620609#0"/>
    <trip id="bus248" type="bus_bus" depart="212.64" departLane="best" from="-184708063#0" to="350166631#0"/>
    <trip id="bus249" type="bus_bus" depart="213.50" departLane="best" from="-28629697#2" to="219482025#5"/>
    <trip id="bus250" type="bus_bus" depart="214.36" departLane="best" from="-203246491#0" to="189482150#2"/>
    <trip id="bus251" type="bus_bus" depart="215.22" departLane="best" from="-38129052#1" to="127088641#0"/>
    <trip id="bus252" type="bus_bus" depart="216.07" departLane="best" from="37911100" to="189482150#2"/>
    <trip id="bus253" type="bus_bus" depart="216.93" departLane="best" from="37795678#0" to="504114517#0"/>
    <trip id="bus254" type="bus_bus" depart="217.79" departLane="best" from="-458718924#1" to="-229038418#3"/>
    <trip id="bus255" type="bus_bus" depart="218.65" departLane="best" from="-127108247#3" to="27369582#1"/>
    <trip id="bus256" type="bus_bus" depart="219.50" departLane="best" from="99696200" to="132005915#2"/>
    <trip id="bus257" type="bus_bus" depart="220.36" departLane="best" from="288207531#3" to="448225718#4"/>
    <trip id="bus258" type="bus_bus" depart="221.22" departLane="best" departSpeed="max" from="926878152" to="-38400085#2"/>
    <trip id="bus259" type="bus_bus" depart="222.08" departLane="best" departSpeed="max" from="-127732073" to="-356397441"/>
    <trip id="bus260" type="bus_bus" depart="222.93" departLane="best" from="-28620588#0" to="356396530#2"/>
    <trip id="bus261" type="bus_bus" depart="223.79" departLane="best" from="245219170#0" to="-38654373#3"/>
    <trip id="bus262" type="bus_bus" depart="224.65" departLane="best" from="356396060" to="415931799#1"/>
    <trip id="bus263" type="bus_bus" depart="225.51" departLane="best" departSpeed="max" from="-356396591" to="28903929#0"/>
    <trip id="bus264" type="bus_bus" depart="226.36" departLane="best" departSpeed="max" from="37795651#0" to="-28620701#2"/>
    <trip id="bus265" type="bus_bus" depart="227.22" departLane="best" from="444058036#1" to="942449053"/>
    <trip id="bus266" type="bus_bus" depart="228.08" departLane="best" departSpeed="max" from="-247241637" to="-188847994"/>
    <trip id="bus267" type="bus_bus" depart="228.94" departLane="best" from="-927867730#1" to="356396741#9"/>
    <trip id="bus268" type="bus_bus" depart="229.79" departLane="best" departSpeed="max" from="927281253#0" to="192147560#1"/>