<?xml version="1.0" encoding="UTF-8"?>

<!-- generated on 2022-07-14 11:38:09 by Eclipse SUMO duarouter Version 1.12.0
<configuration xmlns:xsi="http://www.w3.org/2001/XMLSchema-instance" xsi:noNamespaceSchemaLocation="http://sumo.dlr.de/xsd/duarouterConfiguration.xsd">

    <input>
        <net-file value="C:\Users\Danton%20Moura\Sumo\2022-07-14-11-34-33\osm.net.xml"/>
        <route-files value="C:\Users\Danton%20Moura\Sumo\2022-07-14-11-34-33\osm.passenger.trips.xml"/>
    </input>

    <output>
        <output-file value="C:\Users\Danton%20Moura\Sumo\2022-07-14-11-34-33\osm.passenger.trips.xml.tmp"/>
        <write-trips value="true"/>
    </output>

    <time>
        <begin value="0"/>
        <end value="3600"/>
    </time>

    <report>
        <no-warnings value="true"/>
        <ignore-errors value="true"/>
        <no-step-log value="true"/>
    </report>

</configuration>
-->

<routes xmlns:xsi="http://www.w3.org/2001/XMLSchema-instance" xsi:noNamespaceSchemaLocation="http://sumo.dlr.de/xsd/routes_file.xsd">
    <vType id="veh_passenger" vClass="passenger"/>
    <trip id="veh0" type="veh_passenger" depart="0.00" departLane="best" from="356395966#5" to="-192147552#3"/>
    <trip id="veh1" type="veh_passenger" depart="0.29" departLane="best" from="127088652#1" to="108708329#2"/>
    <trip id="veh2" type="veh_passenger" depart="0.59" departLane="best" from="38133138#1" to="37742012#1"/>
    <trip id="veh3" type="veh_passenger" depart="0.88" departLane="best" from="606416652#3" to="-288143108#3"/>
    <trip id="veh4" type="veh_passenger" depart="1.17" departLane="best" from="219481995#0" to="-203432798#2"/>
    <trip id="veh5" type="veh_passenger" depart="1.46" departLane="best" departSpeed="max" from="-940702974" to="28620522"/>
    <trip id="veh6" type="veh_passenger" depart="1.76" departLane="best" departSpeed="max" from="-191810983" to="-942534754"/>
    <trip id="veh7" type="veh_passenger" depart="2.05" departLane="best" from="356396048#2" to="287950203#1"/>
    <trip id="veh9" type="veh_passenger" depart="2.64" departLane="best" from="451653592" to="-127088647#4"/>
    <trip id="veh10" type="veh_passenger" depart="2.93" departLane="best" from="451653469#4" to="37915998"/>
    <trip id="veh12" type="veh_passenger" depart="3.52" departLane="best" from="927263327#2" to="205657457#2"/>
    <trip id="veh14" type="veh_passenger" depart="4.10" departLane="best" from="48149365#0" to="350274437#0"/>
    <trip id="veh15" type="veh_passenger" depart="4.39" departLane="best" from="451653555" to="399255763"/>
    <trip id="veh16" type="veh_passenger" depart="4.69" departLane="best" departSpeed="max" from="28620543" to="942089587#1"/>
    <trip id="veh17" type="veh_passenger" depart="4.98" departLane="best" from="206948835#1" to="288207531#0"/>
    <trip id="veh18" type="veh_passenger" depart="5.27" departLane="best" from="470073714#0" to="356396044#2"/>
    <trip id="veh19" type="veh_passenger" depart="5.57" departLane="best" from="541545663#1" to="326309726#1"/>
    <trip id="veh20" type="veh_passenger" depart="5.86" departLane="best" from="37742049#2" to="-219482010#0"/>
    <trip id="veh21" type="veh_passenger" depart="6.15" departLane="best" departSpeed="max" from="-942449053" to="188982397#4"/>
    <trip id="veh22" type="veh_passenger" depart="6.45" departLane="best" from="-27925205#0" to="127088648#0"/>
    <trip id="veh23" type="veh_passenger" depart="6.74" departLane="best" from="-288207517#3" to="184701785"/>
    <trip id="veh24" type="veh_passenger" depart="7.03" departLane="best" from="356395778" to="218816751#9"/>
    <trip id="veh25" type="veh_passenger" depart="7.32" departLane="best" from="204586770#0" to="100706544#13"/>
    <trip id="veh26" type="veh_passenger" depart="7.62" departLane="best" from="112414431#0" to="927263326#0"/>
    <trip id="veh27" type="veh_passenger" depart="7.91" departLane="best" from="356396046#4" to="356395830#1"/>
    <trip id="veh28" type="veh_passenger" depart="8.20" departLane="best" departSpeed="max" from="-454586897" to="399066447"/>
    <trip id="veh29" type="veh_passenger" depart="8.50" departLane="best" departSpeed="max" from="-439824071#6" to="219299311#2"/>
    <trip id="veh30" type="veh_passenger" depart="8.79" departLane="best" from="944535071" to="356396259#0"/>
    <trip id="veh31" type="veh_passenger" depart="9.08" departLane="best" from="287533427#2" to="37795655#1"/>
    <trip id="veh33" type="veh_passenger" depart="9.67" departLane="best" departSpeed="max" from="-942465163#1" to="-206543791#0"/>
    <trip id="veh34" type="veh_passenger" depart="9.96" departLane="best" from="184698325#1" to="134816452#0"/>
    <trip id="veh35" type="veh_passenger" depart="10.25" departLane="best" departSpeed="max" from="-927254722" to="927304029"/>
    <trip id="veh36" type="veh_passenger" depart="10.55" departLane="best" from="562621058#0" to="192147550#5"/>
    <trip id="veh37" type="veh_passenger" depart="10.84" departLane="best" from="356396093#0" to="219484114"/>
    <trip id="veh38" type="veh_passenger" depart="11.13" departLane="best" from="887911212#1" to="26936224#2"/>
    <trip id="veh39" type="veh_passenger" depart="11.43" departLane="best" from="109197371" to="130711711#3"/>
    <trip id="veh40" type="veh_passenger" depart="11.72" departLane="best" from="287533465#0" to="132415158#5"/>
    <trip id="veh41" type="veh_passenger" depart="12.01" departLane="best" from="289587080#0" to="912194706"/>
    <trip id="veh42" type="veh_passenger" depart="12.31" departLane="best" from="218816751#10" to="108664532#1"/>
    <trip id="veh43" type="veh_passenger" depart="12.60" departLane="best" from="97503972#0" to="28620753"/>
    <trip id="veh44" type="veh_passenger" depart="12.89" departLane="best" departSpeed="max" from="-28620920" to="-219482020#0"/>
    <trip id="veh45" type="veh_passenger" depart="13.18" departLane="best" from="-326126526#1" to="356396094#1"/>
    <trip id="veh46" type="veh_passenger" depart="13.48" departLane="best" from="451652907#2" to="229187757#3"/>
    <trip id="veh47" type="veh_passenger" depart="13.77" departLane="best" from="-229187809#1" to="219402749#1"/>
    <trip id="veh48" type="veh_passenger" depart="14.06" departLane="best" departSpeed="max" from="972838598" to="287533429#0"/>
    <trip id="veh49" type="veh_passenger" depart="14.36" departLane="best" from="927890012" to="563882873#3"/>
    <trip id="veh50" type="veh_passenger" depart="14.65" departLane="best" from="-127108241#2" to="38654315#0"/>
    <trip id="veh51" type="veh_passenger" depart="14.94" departLane="best" from="356396463" to="287653103#0"/>
    <trip id="veh52" type="veh_passenger" depart="15.24" departLane="best" from="112414431#0" to="356396259#5"/>
    <trip id="veh53" type="veh_passenger" depart="15.53" departLane="best" from="-326538568#3" to="229491227#0"/>
    <trip id="veh54" type="veh_passenger" depart="15.82" departLane="best" from="229187746#1" to="927934741"/>
    <trip id="veh55" type="veh_passenger" depart="16.11" departLane="best" from="562621057" to="132426244#0"/>
    <trip id="veh56" type="veh_passenger" depart="16.41" departLane="best" from="27126510#1" to="-917700535"/>
    <trip id="veh57" type="veh_passenger" depart="16.70" departLane="best" departSpeed="max" from="88149824#0" to="606416635"/>
    <trip id="veh58" type="veh_passenger" depart="16.99" departLane="best" departSpeed="max" from="132013040" to="356396177#1"/>
    <trip id="veh59" type="veh_passenger" depart="17.29" departLane="best" from="326467640#1" to="-450272538"/>
    <trip id="veh60" type="veh_passenger" depart="17.58" departLane="best" from="41186133#0" to="287653112#0"/>
    <trip id="veh61" type="veh_passenger" depart="17.87" departLane="best" from="446556744#1" to="287533430#1"/>
    <trip id="veh62" type="veh_passenger" depart="18.17" departLane="best" from="-100706544#12" to="203195763#1"/>
    <trip id="veh63" type="veh_passenger" depart="18.46" departLane="best" departSpeed="max" from="-188982400" to="926871969"/>
    <trip id="veh64" type="veh_passenger" depart="18.75" departLane="best" from="563049527#2" to="500493458#3"/>
    <trip id="veh65" type="veh_passenger" depart="19.04" departLane="best" from="134817634#1" to="-229360341#1"/>
    <trip id="veh66" type="veh_passenger" depart="19.34" departLane="best" from="562626713#3" to="927797443#1"/>
    <trip id="veh67" type="veh_passenger" depart="19.63" departLane="best" from="-28620573#4" to="27882471"/>
    <trip id="veh68" type="veh_passenger" depart="19.92" departLane="best" departSpeed="max" from="-243500957" to="450272533"/>
    <trip id="veh69" type="veh_passenger" depart="20.22" departLane="best" from="444002068#4" to="-37961025#9"/>
    <trip id="veh70" type="veh_passenger" depart="20.51" departLane="best" from="231046261#2" to="288207510#19"/>
    <trip id="veh71" type="veh_passenger" depart="20.80" departLane="best" from="109197373" to="606423401#0"/>
    <trip id="veh72" type="veh_passenger" depart="21.10" departLane="best" from="219482002#0" to="101570018"/>
    <trip id="veh73" type="veh_passenger" depart="21.39" departLane="best" from="28620696#3" to="399255765#2"/>
    <trip id="veh74" type="veh_passenger" depart="21.68" departLane="best" departSpeed="max" from="-918219946" to="191827597"/>
    <trip id="veh76" type="veh_passenger" depart="22.27" departLane="best" from="220083134#4" to="28674740#0"/>
    <trip id="veh77" type="veh_passenger" depart="22.56" departLane="best" from="-37739372" to="112408864#0"/>
    <trip id="veh78" type="veh_passenger" depart="22.85" departLane="best" from="189615584#1" to="326538547#5"/>
    <trip id="veh79" type="veh_passenger" depart="23.15" departLane="best" departSpeed="max" from="-943166536" to="108692733#3"/>
    <trip id="veh80" type="veh_passenger" depart="23.44" departLane="best" departSpeed="max" from="-247241618" to="356396098#5"/>
    <trip id="veh81" type="veh_passenger" depart="23.73" departLane="best" departSpeed="max" from="-942465163#1" to="921217039"/>
    <trip id="veh82" type="veh_passenger" depart="24.03" departLane="best" from="504209134#3" to="-285800006#0"/>
    <trip id="veh83" type="veh_passenger" depart="24.32" departLane="best" departSpeed="max" from="-944670680" to="358541117#2"/>
    <trip id="veh84" type="veh_passenger" depart="24.61" departLane="best" departSpeed="max" from="-93622755" to="-38133097#0"/>
    <trip id="veh85" type="veh_passenger" depart="24.90" departLane="best" from="230525842#0" to="451653591#0"/>
    <trip id="veh86" type="veh_passenger" depart="25.20" departLane="best" from="451653561#1" to="-927795855"/>
    <trip id="veh87" type="veh_passenger" depart="25.49" departLane="best" from="-287950203#0" to="229360335#3"/>
    <trip id="veh88" type="veh_passenger" depart="25.78" departLane="best" from="219482008#1" to="27103295#3"/>
    <trip id="veh89" type="veh_passenger" depart="26.08" departLane="best" from="38125768#1" to="37739375"/>
    <trip id="veh90" type="veh_passenger" depart="26.37" departLane="best" from="939278911" to="-326667081#2"/>
    <trip id="veh91" type="veh_passenger" depart="26.66" departLane="best" from="218950943#0" to="206611686"/>
    <trip id="veh92" type="veh_passenger" depart="26.96" departLane="best" from="541545663#1" to="131235008#4"/>
    <trip id="veh93" type="veh_passenger" depart="27.25" departLane="best" from="-698804973#3" to="244765836#3"/>
    <trip id="veh94" type="veh_passenger" depart="27.54" departLane="best" from="219481994" to="184701796#0"/>
    <trip id="veh95" type="veh_passenger" depart="27.83" departLane="best" from="100297589" to="926816634"/>
    <trip id="veh96" type="veh_passenger" depart="28.13" departLane="best" from="226319817#0" to="563882884#1"/>
    <trip id="veh97" type="veh_passenger" depart="28.42" departLane="best" from="287533392#1" to="-219484107#3"/>
    <trip id="veh98" type="veh_passenger" depart="28.71" departLane="best" from="98557290#1" to="504115628#1"/>
    <trip id="veh99" type="veh_passenger" depart="29.01" departLane="best" from="927832709" to="926838014"/>
    <trip id="veh100" type="veh_passenger" depart="29.30" departLane="best" from="48151468#2" to="-563882886#0"/>
    <trip id="veh101" type="veh_passenger" depart="29.59" departLane="best" from="253257588" to="1066596241"/>
    <trip id="veh102" type="veh_passenger" depart="29.89" departLane="best" from="218816751#8" to="-229499888#4"/>
    <trip id="veh103" type="veh_passenger" depart="30.18" departLane="best" from="206948837#1" to="944622829"/>
    <trip id="veh104" type="veh_passenger" depart="30.47" departLane="best" from="112408864#0" to="451653573#2"/>
    <trip id="veh105" type="veh_passenger" depart="30.76" departLane="best" from="229187757#3" to="229187768"/>
    <trip id="veh106" type="veh_passenger" depart="31.06" departLane="best" from="927264251" to="97503980#3"/>
    <trip id="veh107" type="veh_passenger" depart="31.35" departLane="best" from="287533424#1" to="38559789#5"/>
    <trip id="veh108" type="veh_passenger" depart="31.64" departLane="best" from="-38559447#0" to="189482150#0"/>
    <trip id="veh109" type="veh_passenger" depart="31.94" departLane="best" from="927819391" to="326309729#0"/>
    <trip id="veh110" type="veh_passenger" depart="32.23" departLane="best" departSpeed="max" from="28620856#0" to="444058035#0"/>
    <trip id="veh111" type="veh_passenger" depart="32.52" departLane="best" from="-219484108#2" to="326467651#0"/>
    <trip id="veh112" type="veh_passenger" depart="32.82" departLane="best" from="27126594#2" to="562621055"/>
    <trip id="veh113" type="veh_passenger" depart="33.11" departLane="best" departSpeed="max" from="-38654299#2" to="929939444"/>
    <trip id="veh115" type="veh_passenger" depart="33.69" departLane="best" from="318751460#0" to="37742002#1"/>
    <trip id="veh116" type="veh_passenger" depart="33.99" departLane="best" departSpeed="max" from="-944584423" to="-37796658#15"/>
    <trip id="veh117" type="veh_passenger" depart="34.28" departLane="best" from="606416594#3" to="130711711#0"/>
    <trip id="veh118" type="veh_passenger" depart="34.57" departLane="best" from="318751457#0" to="356396046#3"/>
    <trip id="veh119" type="veh_passenger" depart="34.87" departLane="best" departSpeed="max" from="219474565" to="326467641#1"/>
    <trip id="veh120" type="veh_passenger" depart="35.16" departLane="best" from="285515351#1" to="927258941#0"/>
    <trip id="veh121" type="veh_passenger" depart="35.45" departLane="best" from="-924697644#1" to="38558196#1"/>
    <trip id="veh122" type="veh_passenger" depart="35.74" departLane="best" departSpeed="max" from="-945689816" to="219484117"/>
    <trip id="veh123" type="veh_passenger" depart="36.04" departLane="best" from="356396262#1" to="189615589#0"/>
    <trip id="veh124" type="veh_passenger" depart="36.33" departLane="best" departSpeed="max" from="184698331#0" to="446556745#2"/>
    <trip id="veh125" type="veh_passenger" depart="36.62" departLane="best" from="-247241626#0" to="26936224#0"/>
    <trip id="veh126" type="veh_passenger" depart="36.92" departLane="best" departSpeed="max" from="-247241634" to="106205219#0"/>
    <trip id="veh127" type="veh_passenger" depart="37.21" departLane="best" from="112408864#0" to="927120524"/>
    <trip id="veh128" type="veh_passenger" depart="37.50" departLane="best" from="563882840#4" to="698131980"/>
    <trip id="veh129" type="veh_passenger" depart="37.80" departLane="best" from="203542641#8" to="-49859792"/>
    <trip id="veh130" type="veh_passenger" depart="38.09" departLane="best" from="471664572#0" to="38129197#1"/>
    <trip id="veh131" type="veh_passenger" depart="38.38" departLane="best" from="326538544#1" to="945689814#1"/>
    <trip id="veh132" type="veh_passenger" depart="38.67" departLane="best" from="356396087#4" to="-127088651#3"/>
    <trip id="veh133" type="veh_passenger" depart="38.97" departLane="best" from="470020230#1" to="189615586#1"/>
    <trip id="veh134" type="veh_passenger" depart="39.26" departLane="best" from="356396121" to="927268395"/>
    <trip id="veh135" type="veh_passenger" depart="39.55" departLane="best" from="-37796658#12" to="-37795655#0"/>
    <trip id="veh136" type="veh_passenger" depart="39.85" departLane="best" from="-318751457#1" to="288207543#6"/>
    <trip id="veh137" type="veh_passenger" depart="40.14" departLane="best" from="127088641#2" to="35540326#0"/>
    <trip id="veh138" type="veh_passenger" depart="40.43" departLane="best" from="37796658#7" to="-945722743#0"/>
    <trip id="veh139" type="veh_passenger" depart="40.73" departLane="best" from="356395756#2" to="132426247#2"/>
    <trip id="veh140" type="veh_passenger" depart="41.02" departLane="best" from="26936224#0" to="921183758#1"/>
    <trip id="veh141" type="veh_passenger" depart="41.31" departLane="best" from="478203138#1" to="-288570862"/>
    <trip id="veh142" type="veh_passenger" depart="41.60" departLane="best" from="219482008#1" to="180253180#0"/>
    <trip id="veh143" type="veh_passenger" depart="41.90" departLane="best" from="-107903097#0" to="451652989#0"/>
    <trip id="veh144" type="veh_passenger" depart="42.19" departLane="best" from="356395826#5" to="132415158#1"/>
    <trip id="veh145" type="veh_passenger" depart="42.48" departLane="best" from="38438547#1" to="288207529#1"/>
    <trip id="veh146" type="veh_passenger" depart="42.78" departLane="best" from="219482031#0" to="-127108236#7"/>
    <trip id="veh147" type="veh_passenger" depart="43.07" departLane="best" departSpeed="max" from="-247242033" to="750264291#1"/>
    <trip id="veh148" type="veh_passenger" depart="43.36" departLane="best" from="752740544" to="288047935#11"/>
    <trip id="veh149" type="veh_passenger" depart="43.66" departLane="best" from="-38399948#1" to="-37959417#0"/>
    <trip id="veh151" type="veh_passenger" depart="44.24" departLane="best" from="451652976#1" to="563882873#3"/>
    <trip id="veh152" type="veh_passenger" depart="44.53" departLane="best" from="698290421" to="100706544#14"/>
    <trip id="veh153" type="veh_passenger" depart="44.83" departLane="best" from="100297577#4" to="-356396025"/>
    <trip id="veh154" type="veh_passenger" depart="45.12" departLane="best" from="446556745#4" to="751924892#1"/>
    <trip id="veh155" type="veh_passenger" depart="45.41" departLane="best" from="219064575#0" to="356396047#3"/>
    <trip id="veh156" type="veh_passenger" depart="45.71" departLane="best" from="-38559417#0" to="926878599"/>
    <trip id="veh157" type="veh_passenger" depart="46.00" departLane="best" from="561899149#1" to="942449053"/>
    <trip id="veh158" type="veh_passenger" depart="46.29" departLane="best" from="454586890#1" to="699814503#0"/>
    <trip id="veh159" type="veh_passenger" depart="46.59" departLane="best" from="-191392772" to="439824071#1"/>
    <trip id="veh160" type="veh_passenger" depart="46.88" departLane="best" from="189151156#0" to="926892116#0"/>
    <trip id="veh161" type="veh_passenger" depart="47.17" departLane="best" from="451653183" to="564110265"/>
    <trip id="veh162" type="veh_passenger" depart="47.46" departLane="best" from="454586890#1" to="134809950#0"/>
    <trip id="veh163" type="veh_passenger" depart="47.76" departLane="best" from="450496436#2" to="-37742010#3"/>
    <trip id="veh164" type="veh_passenger" depart="48.05" departLane="best" from="562356482" to="563882835"/>
    <trip id="veh165" type="veh_passenger" depart="48.34" departLane="best" departSpeed="max" from="-941737546" to="477174192#0"/>
    <trip id="veh166" type="veh_passenger" depart="48.64" departLane="best" from="229187849" to="191392768"/>
    <trip id="veh167" type="veh_passenger" depart="48.93" departLane="best" from="451652975#1" to="118466882#0"/>
    <trip id="veh168" type="veh_passenger" depart="49.22" departLane="best" from="-191322079#1" to="-938299489#1"/>
    <trip id="veh170" type="veh_passenger" depart="49.81" departLane="best" from="927803286#1" to="184706236#0"/>
    <trip id="veh171" type="veh_passenger" depart="50.10" departLane="best" from="356396019#4" to="219726618#0"/>
    <trip id="veh172" type="veh_passenger" depart="50.39" departLane="best" departSpeed="max" from="93152685#0" to="287533511#1"/>
    <trip id="veh173" type="veh_passenger" depart="50.69" departLane="best" from="925256423" to="-37795655#0"/>
    <trip id="veh174" type="veh_passenger" depart="50.98" departLane="best" from="927835742#1" to="-917700535"/>
    <trip id="veh175" type="veh_passenger" depart="51.27" departLane="best" from="927304029" to="132557136"/>
    <trip id="veh176" type="veh_passenger" depart="51.57" departLane="best" departSpeed="max" from="-318751459#1" to="229491224#1"/>
    <trip id="veh177" type="veh_passenger" depart="51.86" departLane="best" from="38092286#7" to="192147549#0"/>
    <trip id="veh178" type="veh_passenger" depart="52.15" departLane="best" from="326368193" to="28620885"/>
    <trip id="veh179" type="veh_passenger" depart="52.45" departLane="best" from="208354790#0" to="326309717#0"/>
    <trip id="veh180" type="veh_passenger" depart="52.74" departLane="best" from="1066596248#2" to="38133142#2"/>
    <trip id="veh181" type="veh_passenger" depart="53.03" departLane="best" from="-100706544#5" to="926832644"/>
    <trip id="veh182" type="veh_passenger" depart="53.32" departLane="best" departSpeed="max" from="28620672" to="38606825#1"/>
    <trip id="veh183" type="veh_passenger" depart="53.62" departLane="best" from="38444515" to="359881974#5"/>
    <trip id="veh184" type="veh_passenger" depart="53.91" departLane="best" from="203432790#0" to="-27925236#0"/>
    <trip id="veh185" type="veh_passenger" depart="54.20" departLane="best" from="356396125#0" to="203432801#0"/>
    <trip id="veh186" type="veh_passenger" depart="54.50" departLane="best" from="171797497#2" to="562214255"/>
    <trip id="veh187" type="veh_passenger" depart="54.79" departLane="best" from="37796664" to="189615589#1"/>
    <trip id="veh188" type="veh_passenger" depart="55.08" departLane="best" from="166117998" to="226319817#0"/>
    <trip id="veh189" type="veh_passenger" depart="55.38" departLane="best" from="218950941" to="189482141#0"/>
    <trip id="veh190" type="veh_passenger" depart="55.67" departLane="best" from="-37742069" to="229187755#1"/>
    <trip id="veh191" type="veh_passenger" depart="55.96" departLane="best" from="926754003#1" to="37742013#9"/>
    <trip id="veh192" type="veh_passenger" depart="56.25" departLane="best" from="751924891#0" to="356396031#0"/>
    <trip id="veh193" type="veh_passenger" depart="56.55" departLane="best" from="132357358#2" to="288143109#1"/>
    <trip id="veh194" type="veh_passenger" depart="56.84" departLane="best" from="-100706544#11" to="188847990#1"/>
    <trip id="veh195" type="veh_passenger" depart="57.13" departLane="best" from="219484108#1" to="326309731#2"/>
    <trip id="veh196" type="veh_passenger" depart="57.43" departLane="best" from="356396090" to="27101872#0"/>
    <trip id="veh197" type="veh_passenger" depart="57.72" departLane="best" from="222691379#2" to="1066596241"/>
    <trip id="veh198" type="veh_passenger" depart="58.01" departLane="best" from="230525842#3" to="917387135"/>
    <trip id="veh199" type="veh_passenger" depart="58.31" departLane="best" from="451652976#1" to="-658029349#8"/>
    <trip id="veh200" type="veh_passenger" depart="58.60" departLane="best" from="-28620463#2" to="286586451"/>
    <trip id="veh201" type="veh_passenger" depart="58.89" departLane="best" from="470020230#6" to="446556744#2"/>
    <trip id="veh202" type="veh_passenger" depart="59.18" departLane="best" from="356396264#1" to="112408864#0"/>
    <trip id="veh203" type="veh_passenger" depart="59.48" departLane="best" departSpeed="max" from="-917677634" to="-192024984"/>
    <trip id="veh204" type="veh_passenger" depart="59.77" departLane="best" departSpeed="max" from="-974107343" to="27126814"/>
    <trip id="veh205" type="veh_passenger" depart="60.06" departLane="best" from="48158098#0" to="-28620301#3"/>
    <trip id="veh206" type="veh_passenger" depart="60.36" departLane="best" from="219299288#4" to="356396096#1"/>
    <trip id="veh207" type="veh_passenger" depart="60.65" departLane="best" from="-913205518" to="37911132#4"/>
    <trip id="veh209" type="veh_passenger" depart="61.24" departLane="best" from="356396094#2" to="-127088642#2"/>
    <trip id="veh210" type="veh_passenger" depart="61.53" departLane="best" from="38654373#1" to="451652975#0"/>
    <trip id="veh211" type="veh_passenger" depart="61.82" departLane="best" departSpeed="max" from="-318751453#3" to="229187785#1"/>
    <trip id="veh212" type="veh_passenger" depart="62.11" departLane="best" from="-562214260#0" to="929792389"/>
    <trip id="veh213" type="veh_passenger" depart="62.41" departLane="best" from="27882769#0" to="-219484107#0"/>
    <trip id="veh214" type="veh_passenger" depart="62.70" departLane="best" from="100297577#2" to="562214260#1"/>
    <trip id="veh215" type="veh_passenger" depart="62.99" departLane="best" from="229187771#1" to="470020275#0"/>
    <trip id="veh216" type="veh_passenger" depart="63.29" departLane="best" from="356396255" to="945689818"/>
    <trip id="veh217" type="veh_passenger" depart="63.58" departLane="best" from="318751461#2" to="927832709"/>
    <trip id="veh218" type="veh_passenger" depart="63.87" departLane="best" from="606416648#2" to="356396019#1"/>
    <trip id="veh219" type="veh_passenger" depart="64.17" departLane="best" from="37796662#3" to="28620453#2"/>
    <trip id="veh220" type="veh_passenger" depart="64.46" departLane="best" from="471664564#1" to="288143109#1"/>
    <trip id="veh221" type="veh_passenger" depart="64.75" departLane="best" from="683571989#3" to="444048502#1"/>
    <trip id="veh222" type="veh_passenger" depart="65.04" departLane="best" from="231046224#4" to="132006536#8"/>
    <trip id="veh223" type="veh_passenger" depart="65.34" departLane="best" departSpeed="max" from="-976370159" to="356396147"/>
    <trip id="veh224" type="veh_passenger" depart="65.63" departLane="best" from="444002068#4" to="287533396#2"/>
    <trip id="veh225" type="veh_passenger" depart="65.92" departLane="best" departSpeed="max" from="343466396" to="170400563#1"/>
    <trip id="veh226" type="veh_passenger" depart="66.22" departLane="best" from="-27806434" to="188755162#5"/>
    <trip id="veh227" type="veh_passenger" depart="66.51" departLane="best" from="126665636#0" to="195961347#1"/>
    <trip id="veh228" type="veh_passenger" depart="66.80" departLane="best" from="28620732" to="-38435398#0"/>
    <trip id="veh229" type="veh_passenger" depart="67.10" departLane="best" departSpeed="max" from="-943212156" to="37796668#2"/>
    <trip id="veh230" type="veh_passenger" depart="67.39" departLane="best" from="37742067#2" to="-27184845#0"/>
    <trip id="veh231" type="veh_passenger" depart="67.68" departLane="best" from="219064576#0" to="287754931#2"/>
    <trip id="veh232" type="veh_passenger" depart="67.97" departLane="best" from="219299308#1" to="-97503980#0"/>
    <trip id="veh233" type="veh_passenger" depart="68.27" departLane="best" from="219477648" to="920721326"/>
    <trip id="veh235" type="veh_passenger" depart="68.85" departLane="best" from="504115626#0" to="451652906#3"/>
    <trip id="veh236" type="veh_passenger" depart="69.15" departLane="best" departSpeed="max" from="207947182" to="-127088643#0"/>
    <trip id="veh237" type="veh_passenger" depart="69.44" departLane="best" from="192147551#0" to="446924092"/>
    <trip id="veh238" type="veh_passenger" depart="69.73" departLane="best" from="500493439#3" to="927933238#3"/>
    <trip id="veh239" type="veh_passenger" depart="70.03" departLane="best" from="219436043#0" to="444048536#0"/>
    <trip id="veh242" type="veh_passenger" depart="70.90" departLane="best" from="219926621#2" to="-203246491#0"/>
    <trip id="veh243" type="veh_passenger" depart="71.20" departLane="best" from="189482146#1" to="37742049#2"/>
    <trip id="veh244" type="veh_passenger" depart="71.49" departLane="best" from="219006067#1" to="-563882873#3"/>
    <trip id="veh245" type="veh_passenger" depart="71.78" departLane="best" departSpeed="max" from="229491225" to="-37959419"/>
    <trip id="veh246" type="veh_passenger" depart="72.08" departLane="best" from="329309184#0" to="-203195766#4"/>
    <trip id="veh248" type="veh_passenger" depart="72.66" departLane="best" departSpeed="max" from="-191827602" to="356396261#0"/>
    <trip id="veh249" type="veh_passenger" depart="72.95" departLane="best" from="-37796658#5" to="27028060#1"/>
    <trip id="veh250" type="veh_passenger" depart="73.25" departLane="best" from="-219482002#0" to="219299308#1"/>
    <trip id="veh251" type="veh_passenger" depart="73.54" departLane="best" from="-927281253#1" to="203195787"/>
    <trip id="veh252" type="veh_passenger" depart="73.83" departLane="best" from="41186071#3" to="219299308#1"/>
    <trip id="veh253" type="veh_passenger" depart="74.13" departLane="best" from="38744118#2" to="500726022"/>
    <trip id="veh254" type="veh_passenger" depart="74.42" departLane="best" from="101570018" to="-28620932#6"/>
    <trip id="veh255" type="veh_passenger" depart="74.71" departLane="best" departSpeed="max" from="-188982400" to="287653112#1"/>
    <trip id="veh256" type="veh_passenger" depart="75.01" departLane="best" from="99045285#0" to="208590050"/>
    <trip id="veh258" type="veh_passenger" depart="75.59" departLane="best" from="356396079#1" to="447936230"/>
    <trip id="veh259" type="veh_passenger" depart="75.88" departLane="best" departSpeed="max" from="926878152" to="-943212155"/>
    <trip id="veh260" type="veh_passenger" depart="76.18" departLane="best" from="-189482146#1" to="-450126182"/>
    <trip id="veh261" type="veh_passenger" depart="76.47" departLane="best" from="-37742054#2" to="358541119"/>
    <trip id="veh262" type="veh_passenger" depart="76.76" departLane="best" from="287533474#1" to="108643677#1"/>
    <trip id="veh263" type="veh_passenger" depart="77.06" departLane="best" from="37739375" to="451652907#2"/>