<?xml version="1.0" encoding="UTF-8"?>

<!-- generated on 2022-07-14 11:39:06 by Eclipse SUMO duarouter Version 1.12.0
<configuration xmlns:xsi="http://www.w3.org/2001/XMLSchema-instance" xsi:noNamespaceSchemaLocation="http://sumo.dlr.de/xsd/duarouterConfiguration.xsd">

    <input>
        <net-file value="C:\Users\Danton%20Moura\Sumo\2022-07-14-11-34-33\osm.net.xml"/>
        <route-files value="C:\Users\Danton%20Moura\Sumo\2022-07-14-11-34-33\osm.truck.trips.xml"/>
    </input>

    <output>
        <output-file value="C:\Users\Danton%20Moura\Sumo\2022-07-14-11-34-33\osm.truck.trips.xml.tmp"/>
        <write-trips value="true"/>
    </output>

    <time>
        <begin value="0"/>
        <end value="3600"/>
    </time>

    <report>
        <no-warnings value="true"/>
        <ignore-errors value="true"/>
        <no-step-log value="true"/>
    </report>

</configuration>
-->

<routes xmlns:xsi="http://www.w3.org/2001/XMLSchema-instance" xsi:noNamespaceSchemaLocation="http://sumo.dlr.de/xsd/routes_file.xsd">
    <vType id="truck_truck" vClass="truck"/>
    <trip id="truck0" type="truck_truck" depart="0.00" departLane="best" from="287533511#0" to="-188997836"/>
    <trip id="truck1" type="truck_truck" depart="0.44" departLane="best" from="-698137930" to="-450126187"/>
    <trip id="truck2" type="truck_truck" depart="0.88" departLane="best" from="37742050#4" to="356396603#0"/>
    <trip id="truck3" type="truck_truck" depart="1.32" departLane="best" from="563882887" to="-230069323"/>
    <trip id="truck4" type="truck_truck" depart="1.76" departLane="best" from="184701791" to="-191322064#0"/>
    <trip id="truck5" type="truck_truck" depart="2.20" departLane="best" from="-38438035#1" to="243463359"/>
    <trip id="truck6" type="truck_truck" depart="2.64" departLane="best" from="-186936338#1" to="-38434576#4"/>
    <trip id="truck7" type="truck_truck" depart="3.08" departLane="best" from="288207510#20" to="27882470#1"/>
    <trip id="truck8" type="truck_truck" depart="3.52" departLane="best" from="-38448464#1" to="287533463#0"/>
    <trip id="truck9" type="truck_truck" depart="3.96" departLane="best" departSpeed="max" from="425825418#0" to="-126665636#2"/>
    <trip id="truck10" type="truck_truck" depart="4.39" departLane="best" from="399255767#0" to="37742054#4"/>
    <trip id="truck11" type="truck_truck" depart="4.83" departLane="best" departSpeed="max" from="-943229361" to="-37741995#1"/>
    <trip id="truck12" type="truck_truck" depart="5.27" departLane="best" from="927271585#1" to="130581735#0"/>
    <trip id="truck13" type="truck_truck" depart="5.71" departLane="best" departSpeed="max" from="-229187848#2" to="-27317400#1"/>
    <trip id="truck14" type="truck_truck" depart="6.15" departLane="best" from="470020245#1" to="288207510#12"/>
    <trip id="truck15" type="truck_truck" depart="6.59" departLane="best" from="41186071#2" to="38133100#1"/>
    <trip id="truck16" type="truck_truck" depart="7.03" departLane="best" from="229038401" to="944504845"/>
    <trip id="truck17" type="truck_truck" depart="7.47" departLane="best" from="108692733#1" to="28518581#1"/>
    <trip id="truck18" type="truck_truck" depart="7.91" departLane="best" from="451652976#1" to="317877520#0"/>
    <trip id="truck20" type="truck_truck" depart="8.79" departLane="best" from="356396093#2" to="-203432813#5"/>
    <trip id="truck21" type="truck_truck" depart="9.23" departLane="best" from="-38654286#0" to="-941735086"/>
    <trip id="truck22" type="truck_truck" depart="9.67" departLane="best" from="-219482028#2" to="-562214255"/>
    <trip id="truck23" type="truck_truck" depart="10.11" departLane="best" departSpeed="max" from="-243500957" to="-927779884#1"/>
    <trip id="truck24" type="truck_truck" depart="10.55" departLane="best" from="287533463#1" to="184734474#0"/>
    <trip id="truck25" type="truck_truck" depart="10.99" departLane="best" from="100706544#12" to="-38559678"/>
    <trip id="truck26" type="truck_truck" depart="11.43" departLane="best" from="-563882886#4" to="928581238"/>
    <trip id="truck27" type="truck_truck" depart="11.87" departLane="best" from="288143114#0" to="288207555#3"/>
    <trip id="truck28" type="truck_truck" depart="12.31" departLane="best" from="-356396676#5" to="38133096"/>
    <trip id="truck29" type="truck_truck" depart="12.75" departLane="best" from="-326758830#2" to="189615589#0"/>
    <trip id="truck32" type="truck_truck" depart="14.06" departLane="best" departSpeed="max" from="-38654299#2" to="-191346919#1"/>
    <trip id="truck33" type="truck_truck" depart="14.50" departLane="best" departSpeed="max" from="-938379380#2" to="-924697643"/>
    <trip id="truck34" type="truck_truck" depart="14.94" departLane="best" from="-38133104" to="938299491#2"/>
    <trip id="truck35" type="truck_truck" depart="15.38" departLane="best" from="562103009#0" to="108636200#12"/>
    <trip id="truck36" type="truck_truck" depart="15.82" departLane="best" from="289799958#0" to="192163583"/>
    <trip id="truck37" type="truck_truck" depart="16.26" departLane="best" from="887911209#0" to="219482011#2"/>
    <trip id="truck38" type="truck_truck" depart="16.70" departLane="best" from="-563882878#1" to="-58429863#1"/>
    <trip id="truck39" type="truck_truck" depart="17.14" departLane="best" from="244685952" to="-918219947"/>
    <trip id="truck40" type="truck_truck" depart="17.58" departLane="best" departSpeed="max" from="27318456" to="923478228#3"/>
    <trip id="truck42" type="truck_truck" depart="18.46" departLane="best" departSpeed="max" from="97503980#0" to="244757060#0"/>
    <trip id="truck43" type="truck_truck" depart="18.90" departLane="best" from="-229038413#0" to="-206543791#0"/>
    <trip id="truck44" type="truck_truck" depart="19.34" departLane="best" departSpeed="max" from="-247241639" to="326309724"/>
    <trip id="truck45" type="truck_truck" depart="19.78" departLane="best" departSpeed="max" from="38559678" to="208928170"/>
    <trip id="truck46" type="truck_truck" depart="20.22" departLane="best" from="-219299311#7" to="191322064#0"/>
    <trip id="truck47" type="truck_truck" depart="20.66" departLane="best" departSpeed="max" from="973436059" to="27103340#1"/>
    <trip id="truck48" type="truck_truck" depart="21.10" departLane="best" from="930336030" to="606416594#1"/>
    <trip id="truck49" type="truck_truck" depart="21.53" departLane="best" from="-127088648#9" to="37915995#0"/>
    <trip id="truck51" type="truck_truck" depart="22.41" departLane="best" from="-563882886#2" to="326955677"/>
    <trip id="truck52" type="truck_truck" depart="22.85" departLane="best" from="-252223473#1" to="219006067#2"/>
    <trip id="truck53" type="truck_truck" depart="23.29" departLane="best" from="195961347#1" to="941735085"/>
    <trip id="truck54" type="truck_truck" depart="23.73" departLane="best" from="561912365#1" to="-918537917"/>
    <trip id="truck55" type="truck_truck" depart="24.17" departLane="best" from="219299310" to="-37796667"/>
    <trip id="truck56" type="truck_truck" depart="24.61" departLane="best" from="828935403#1" to="699756639#0"/>
    <trip id="truck57" type="truck_truck" depart="25.05" departLane="best" from="-924697644#1" to="326758832#5"/>
    <trip id="truck59" type="truck_truck" depart="25.93" departLane="best" from="37959415#0" to="27318747#0"/>
    <trip id="truck60" type="truck_truck" depart="26.37" departLane="best" from="38400085#2" to="27126435#2"/>
    <trip id="truck61" type="truck_truck" depart="26.81" departLane="best" from="-100706544#13" to="127088642#0"/>
    <trip id="truck62" type="truck_truck" depart="27.25" departLane="best" from="-130581733" to="927753726"/>
    <trip id="truck63" type="truck_truck" depart="27.69" departLane="best" from="562214278#1" to="504209136#3"/>
    <trip id="truck64" type="truck_truck" depart="28.13" departLane="best" departSpeed="max" from="-927254722" to="-219333435#2"/>
    <trip id="truck65" type="truck_truck" depart="28.57" departLane="best" from="562214271#3" to="939213340#1"/>
    <trip id="truck66" type="truck_truck" depart="29.01" departLane="best" from="-219673759#7" to="229187724#0"/>
    <trip id="truck67" type="truck_truck" depart="29.45" departLane="best" from="-219477655#1" to="40179368#0"/>
    <trip id="truck68" type="truck_truck" depart="29.89" departLane="best" from="38092286#5" to="-288143107#2"/>
    <trip id="truck69" type="truck_truck" depart="30.32" departLane="best" from="208352988" to="27925230"/>
    <trip id="truck70" type="truck_truck" depart="30.76" departLane="best" from="-563882880" to="699919778"/>
    <trip id="truck71" type="truck_truck" depart="31.20" departLane="best" from="184734468#1" to="-38559841#5"/>
    <trip id="truck72" type="truck_truck" depart="31.64" departLane="best" from="229187733#0" to="38133101"/>
    <trip id="truck73" type="truck_truck" depart="32.08" departLane="best" from="-37911102#0" to="106205219#2"/>
    <trip id="truck74" type="truck_truck" depart="32.52" departLane="best" departSpeed="max" from="972838598" to="356395756#1"/>
    <trip id="truck75" type="truck_truck" depart="32.96" departLane="best" from="189615584#0" to="247241636#1"/>
    <trip id="truck76" type="truck_truck" depart="33.40" departLane="best" from="-285800006#0" to="-451653376"/>
    <trip id="truck77" type="truck_truck" depart="33.84" departLane="best" from="-943143831" to="287533429#2"/>
    <trip id="truck78" type="truck_truck" depart="34.28" departLane="best" from="-38654373#0" to="-425825418#0"/>
    <trip id="truck79" type="truck_truck" depart="34.72" departLane="best" from="-219481997" to="326467638#1"/>
    <trip id="truck80" type="truck_truck" depart="35.16" departLane="best" departSpeed="max" from="-38654299#2" to="924831946"/>
    <trip id="truck81" type="truck_truck" depart="35.60" departLane="best" from="477741057#3" to="-219482027#10"/>
    <trip id="truck82" type="truck_truck" depart="36.04" departLane="best" from="-439824071#3" to="356396274#8"/>
    <trip id="truck83" type="truck_truck" depart="36.48" departLane="best" from="-38400075#1" to="-288207517#3"/>
    <trip id="truck84" type="truck_truck" depart="36.92" departLane="best" from="924521906" to="28620852#0"/>
    <trip id="truck85" type="truck_truck" depart="37.36" departLane="best" from="206948838#2" to="451652906#4"/>
    <trip id="truck86" type="truck_truck" depart="37.80" departLane="best" from="41186074" to="-38133094#0"/>
    <trip id="truck87" type="truck_truck" depart="38.24" departLane="best" from="-230069300#0" to="218396822"/>
    <trip id="truck88" type="truck_truck" depart="38.67" departLane="best" from="184734472#2" to="219484108#6"/>
    <trip id="truck89" type="truck_truck" depart="39.11" departLane="best" from="37741989#0" to="356396530#1"/>
    <trip id="truck90" type="truck_truck" depart="39.55" departLane="best" departSpeed="max" from="944504837" to="-27318561#2"/>
    <trip id="truck91" type="truck_truck" depart="39.99" departLane="best" from="131451536#0" to="130688621#3"/>
    <trip id="truck92" type="truck_truck" depart="40.43" departLane="best" from="479502666#1" to="-658029349#0"/>
    <trip id="truck93" type="truck_truck" depart="40.87" departLane="best" from="-37795672" to="219405345#1"/>
    <trip id="truck94" type="truck_truck" depart="41.31" departLane="best" from="184701791" to="-927799139"/>
    <trip id="truck95" type="truck_truck" depart="41.75" departLane="best" departSpeed="max" from="-468523975" to="927263323#0"/>
    <trip id="truck96" type="truck_truck" depart="42.19" departLane="best" from="191346919#4" to="606416648#1"/>
    <trip id="truck97" type="truck_truck" depart="42.63" departLane="best" from="229491222#0" to="-215412467#1"/>
    <trip id="truck98" type="truck_truck" depart="43.07" departLane="best" from="976726513" to="561912365#1"/>
    <trip id="truck99" type="truck_truck" depart="43.51" departLane="best" from="929772922" to="927281253#1"/>
    <trip id="truck100" type="truck_truck" depart="43.95" departLane="best" from="470020279" to="-37795648#0"/>
    <trip id="truck101" type="truck_truck" depart="44.39" departLane="best" from="217449588" to="-38654297#0"/>
    <trip id="truck102" type="truck_truck" depart="44.83" departLane="best" from="130711711#2" to="-219474565"/>
    <trip id="truck103" type="truck_truck" depart="45.27" departLane="best" from="108692733#6" to="971493957"/>
    <trip id="truck104" type="truck_truck" depart="45.71" departLane="best" from="-563882882#0" to="451652887#1"/>
    <trip id="truck105" type="truck_truck" depart="46.15" departLane="best" from="203195761#10" to="209616524#0"/>
    <trip id="truck106" type="truck_truck" depart="46.59" departLane="best" from="927273296" to="975886466"/>
    <trip id="truck107" type="truck_truck" depart="47.03" departLane="best" from="231046261#1" to="37911132#3"/>
    <trip id="truck108" type="truck_truck" depart="47.46" departLane="best" departSpeed="max" from="-29502710" to="-944622831"/>
    <trip id="truck109" type="truck_truck" depart="47.90" departLane="best" from="229187767" to="38559841#0"/>
    <trip id="truck110" type="truck_truck" depart="48.34" departLane="best" from="-215412467#1" to="28675931"/>
    <trip id="truck111" type="truck_truck" depart="48.78" departLane="best" from="219333435#0" to="563882884#6"/>
    <trip id="truck112" type="truck_truck" depart="49.22" departLane="best" departSpeed="max" from="-318751458#1" to="942097389"/>
    <trip id="truck113" type="truck_truck" depart="49.66" departLane="best" from="-219482031#0" to="-37961052"/>
    <trip id="truck114" type="truck_truck" depart="50.10" departLane="best" from="27925096" to="356396578#0"/>
    <trip id="truck115" type="truck_truck" depart="50.54" departLane="best" departSpeed="max" from="-424433549" to="-28620908#1"/>
    <trip id="truck116" type="truck_truck" depart="50.98" departLane="best" from="563882882#0" to="-564110264"/>
    <trip id="truck117" type="truck_truck" depart="51.42" departLane="best" from="27882769#0" to="318751453#3"/>
    <trip id="truck118" type="truck_truck" depart="51.86" departLane="best" from="180252963#0" to="28675707"/>
    <trip id="truck119" type="truck_truck" depart="52.30" departLane="best" from="219673759#3" to="927892655"/>
    <trip id="truck120" type="truck_truck" depart="52.74" departLane="best" from="-37916008#0" to="37796670"/>
    <trip id="truck121" type="truck_truck" depart="53.18" departLane="best" from="-439824072#0" to="192163611#0"/>
    <trip id="truck122" type="truck_truck" depart="53.62" departLane="best" from="326467635#0" to="-945739887"/>
    <trip id="truck123" type="truck_truck" depart="54.06" departLane="best" departSpeed="max" from="-938653021" to="38654373#1"/>
    <trip id="truck124" type="truck_truck" depart="54.50" departLane="best" from="-219482003#0" to="219482010#1"/>
    <trip id="truck125" type="truck_truck" depart="54.94" departLane="best" from="97503984#0" to="976370157"/>
    <trip id="truck126" type="truck_truck" depart="55.38" departLane="best" from="-219482008#13" to="-38654287#0"/>
    <trip id="truck127" type="truck_truck" depart="55.81" departLane="best" from="-563882882#0" to="927866399#0"/>
    <trip id="truck128" type="truck_truck" depart="56.25" departLane="best" from="562603479#1" to="791406767"/>
    <trip id="truck129" type="truck_truck" depart="56.69" departLane="best" from="100297587" to="-37742012#0"/>
    <trip id="truck130" type="truck_truck" depart="57.13" departLane="best" from="451653399#2" to="37795646#2"/>
    <trip id="truck131" type="truck_truck" depart="57.57" departLane="best" departSpeed="max" from="28620465" to="972928203#0"/>
    <trip id="truck132" type="truck_truck" depart="58.01" departLane="best" from="288207547#3" to="-127088642#7"/>
    <trip id="truck133" type="truck_truck" depart="58.45" departLane="best" from="444058035#2" to="-945722743#0"/>
    <trip id="truck134" type="truck_truck" depart="58.89" departLane="best" from="318751458#0" to="929833666"/>
    <trip id="truck135" type="truck_truck" depart="59.33" departLane="best" departSpeed="max" from="-28620920" to="-28620724"/>
    <trip id="truck136" type="truck_truck" depart="59.77" departLane="best" departSpeed="max" from="-247241629#1" to="285515348"/>
    <trip id="truck137" type="truck_truck" depart="60.21" departLane="best" from="-653274666#0" to="288207510#4"/>
    <trip id="truck138" type="truck_truck" depart="60.65" departLane="best" from="356396549" to="-38448748#0"/>
    <trip id="truck139" type="truck_truck" depart="61.09" departLane="best" from="287533427#5" to="-918537919#0"/>
    <trip id="truck140" type="truck_truck" depart="61.53" departLane="best" from="218873867#1" to="924831945"/>
    <trip id="truck141" type="truck_truck" depart="61.97" departLane="best" from="470020237#3" to="-244997797"/>
    <trip id="truck142" type="truck_truck" depart="62.41" departLane="best" from="184734472#2" to="-927282634"/>
    <trip id="truck143" type="truck_truck" depart="62.85" departLane="best" from="-106205219#3" to="444048502#3"/>
    <trip id="truck144" type="truck_truck" depart="63.29" departLane="best" from="287533469#4" to="-917700537#0"/>
    <trip id="truck145" type="truck_truck" depart="63.73" departLane="best" from="37779071" to="28518573#0"/>
    <trip id="truck146" type="truck_truck" depart="64.17" departLane="best" from="188847950#0" to="-127088648#5"/>
    <trip id="truck147" type="truck_truck" depart="64.60" departLane="best" from="-219482012#0" to="896029636#1"/>
    <trip id="truck148" type="truck_truck" depart="65.04" departLane="best" from="698804972" to="27882510#0"/>
    <trip id="truck149" type="truck_truck" depart="65.48" departLane="best" from="451653409#1" to="28675502"/>
    <trip id="truck150" type="truck_truck" depart="65.92" departLane="best" from="-288207510#2" to="-287950209"/>
    <trip id="truck151" type="truck_truck" depart="66.36" departLane="best" departSpeed="max" from="-927281254" to="923867828"/>
    <trip id="truck152" type="truck_truck" depart="66.80" departLane="best" departSpeed="max" from="38654287#0" to="606416594#1"/>
    <trip id="truck153" type="truck_truck" depart="67.24" departLane="best" from="618007936" to="-38559788#0"/>
    <trip id="truck154" type="truck_truck" depart="67.68" departLane="best" departSpeed="max" from="-468523975" to="-27925096"/>
    <trip id="truck155" type="truck_truck" depart="68.12" departLane="best" from="38400127#1" to="907623876"/>
    <trip id="truck156" type="truck_truck" depart="68.56" departLane="best" from="131985984#1" to="318751459#1"/>
    <trip id="truck157" type="truck_truck" depart="69.00" departLane="best" from="-29501745" to="927790174#0"/>
    <trip id="truck158" type="truck_truck" depart="69.44" departLane="best" from="48158102#8" to="944584432#1"/>
    <trip id="truck159" type="truck_truck" depart="69.88" departLane="best" from="439824072#0" to="887911210"/>
    <trip id="truck160" type="truck_truck" depart="70.32" departLane="best" from="-134816044#1" to="38400128"/>
    <trip id="truck161" type="truck_truck" depart="70.76" departLane="best" departSpeed="max" from="-942097390#1" to="927795856"/>
    <trip id="truck162" type="truck_truck" depart="71.20" departLane="best" from="393912426" to="654094713#2"/>
    <trip id="truck163" type="truck_truck" depart="71.64" departLane="best" from="439824072#0" to="-924431316#1"/>
    <trip id="truck165" type="truck_truck" depart="72.52" departLane="best" from="541545663#0" to="59741728#2"/>
    <trip id="truck166" type="truck_truck" depart="72.95" departLane="best" from="-38558196#0" to="474807464"/>
    <trip id="truck167" type="truck_truck" depart="73.39" departLane="best" from="203246491#0" to="-97503980#0"/>
    <trip id="truck169" type="truck_truck" depart="74.27" departLane="best" departSpeed="max" from="-132431028#4" to="-38133100#2"/>
    <trip id="truck170" type="truck_truck" depart="74.71" departLane="best" departSpeed="max" from="-942089585" to="654127370#0"/>
    <trip id="truck171" type="truck_truck" depart="75.15" departLane="best" from="928452115#0" to="-927866399#1"/>
    <trip id="truck172" type="truck_truck" depart="75.59" departLane="best" from="287653121#0" to="202958694"/>
    <trip id="truck174" type="truck_truck" depart="76.47" departLane="best" departSpeed="max" from="924853403#0" to="-28620721"/>
    <trip id="truck175" type="truck_truck" depart="76.91" departLane="best" from="929883772" to="-37796667"/>
    <trip id="truck176" type="truck_truck" depart="77.35" departLane="best" from="927797443#1" to="-923613005"/>
    <trip id="truck177" type="truck_truck" depart="77.79" departLane="best" departSpeed="max" from="-247241637" to="219006067#0"/>
    <trip id="truck178" type="truck_truck" depart="78.23" departLane="best" from="37739374" to="107903097#3"/>
    <trip id="truck179" type="truck_truck" depart="78.67" departLane="best" from="28620256" to="247241616#1"/>
    <trip id="truck180" type="truck_truck" depart="79.11" departLane="best" from="126665636#1" to="28629688#0"/>
    <trip id="truck181" type="truck_truck" depart="79.55" departLane="best" from="-562214258#3" to="37795689"/>
    <trip id="truck182" type="truck_truck" depart="79.99" departLane="best" from="-100706544#9" to="927278995#1"/>
    <trip id="truck183" type="truck_truck" depart="80.43" departLane="best" from="229187722" to="37911136"/>
    <trip id="truck184" type="truck_truck" depart="80.87" departLane="best" from="37795642#5" to="356396290#1"/>
    <trip id="truck185" type="truck_truck" depart="81.31" departLane="best" departSpeed="max" from="-97503980#7" to="-219482023#2"/>
    <trip id="truck186" type="truck_truck" depart="81.74" departLane="best" from="318751466#1" to="127090546"/>
    <trip id="truck187" type="truck_truck" depart="82.18" departLane="best" from="-938299494#0" to="563882835"/>
    <trip id="truck188" type="truck_truck" depart="82.62" departLane="best" from="356396648#2" to="-945739887"/>
    <trip id="truck189" type="truck_truck" depart="83.06" departLane="best" from="-927293705#0" to="203432805#1"/>
    <trip id="truck190" type="truck_truck" depart="83.50" departLane="best" from="131451535#1" to="-944584432#0"/>
    <trip id="truck191" type="truck_truck" depart="83.94" departLane="best" from="-28620588#1" to="208356048"/>
    <trip id="truck192" type="truck_truck" depart="84.38" departLane="best" from="925023200" to="356396648#4"/>
    <trip id="truck193" type="truck_truck" depart="84.82" departLane="best" from="698137930" to="295701556"/>
    <trip id="truck194" type="truck_truck" depart="85.26" departLane="best" departSpeed="max" from="-924960763" to="27882769#1"/>
    <trip id="truck195" type="truck_truck" depart="85.70" departLane="best" from="-100706544#12" to="-941677931"/>
    <trip id="truck197" type="truck_truck" depart="86.58" departLane="best" from="288570861#0" to="219482033#1"/>
    <trip id="truck198" type="truck_truck" depart="87.02" departLane="best" from="191322081#1" to="-38654297#0"/>
    <trip id="truck199" type="truck_truck" depart="87.46" departLane="best" departSpeed="max" from="207947182" to="924410421"/>
    <trip id="truck200" type="truck_truck" depart="87.90" departLane="best" departSpeed="max" from="38654287#0" to="-37795666#3"/>
    <trip id="truck201" type="truck_truck" depart="88.34" departLane="best" from="-219673759#10" to="247241628"/>
    <trip id="truck202" type="truck_truck" depart="88.78" departLane="best" from="287533416#1" to="127732073"/>
    <trip id="truck203" type="truck_truck" depart="89.22" departLane="best" from="446556745#2" to="38654314#1"/>
    <trip id="truck204" type="truck_truck" depart="89.66" departLane="best" from="326467639#1" to="-451653302"/>
    <trip id="truck205" type="truck_truck" depart="90.09" departLane="best" from="-37796663#1" to="-188997830#0"/>
    <trip id="truck206" type="truck_truck" depart="90.53" departLane="best" from="-451653385" to="220083125#0"/>
    <trip id="truck207" type="truck_truck" depart="90.97" departLane="best" from="470073701" to="-219482033#1"/>
    <trip id="truck208" type="truck_truck" depart="91.41" departLane="best" from="134817630#2" to="326309732"/>
    <trip id="truck209" type="truck_truck" depart="91.85" departLane="best" from="219150317" to="-563882886#0"/>
    <trip id="truck210" type="truck_truck" depart="92.29" departLane="best" from="29050603" to="-112427803"/>
    <trip id="truck211" type="truck_truck" depart="92.73" departLane="best" from="37796656#8" to="444013695#2"/>
    <trip id="truck212" type="truck_truck" depart="93.17" departLane="best" from="-247241626#2" to="215412435#1"/>
    <trip id="truck213" type="truck_truck" depart="93.61" departLane="best" departSpeed="max" from="-37741985" to="942089586#1"/>
    <trip id="truck214" type="truck_truck" depart="94.05" departLane="best" from="219482028#1" to="-215412435#4"/>
    <trip id="truck215" type="truck_truck" depart="94.49" departLane="best" from="-458718924#0" to="563882836#0"/>
    <trip id="truck216" type="truck_truck" depart="94.93" departLane="best" from="203195766#0" to="454586902#3"/>
    <trip id="truck217" type="truck_truck" depart="95.37" departLane="best" from="326309689#0" to="973018047"/>
    <trip id="truck218" type="truck_truck" depart="95.81" departLane="best" departSpeed="max" from="27925136" to="941669088"/>
    <trip id="truck219" type="truck_truck" depart="96.25" departLane="best" from="563882884#9" to="293803031#0"/>
    <trip id="truck220" type="truck_truck" depart="96.69" departLane="best" from="356396580#2" to="236855845#2"/>
    <trip id="truck221" type="truck_truck" depart="97.13" departLane="best" from="451653047#3" to="27882769#1"/>
    <trip id="truck222" type="truck_truck" depart="97.57" departLane="best" from="606416594#2" to="38451283#1"/>
    <trip id="truck223" type="truck_truck" depart="98.01" departLane="best" from="208141178" to="-913290428#0"/>
    <trip id="truck224" type="truck_truck" depart="98.45" departLane="best" from="-451653519#5" to="326758828#0"/>
    <trip id="truck225" type="truck_truck" depart="98.88" departLane="best" from="38092286#5" to="252223473#1"/>
    <trip id="truck226" type="truck_truck" depart="99.32" departLane="best" from="286669404#0" to="-926887125"/>
    <trip id="truck227" type="truck_truck" depart="99.76" departLane="best" departSpeed="max" from="-587321656#2" to="112414431#2"/>
    <trip id="truck228" type="truck_truck" depart="100.20" departLane="best" from="229187741#3" to="-318751461#0"/>
    <trip id="truck230" type="truck_truck" depart="101.08" departLane="best" from="356396100#0" to="-219481999#2"/>
    <trip id="truck231" type="truck_truck" depart="101.52" departLane="best" from="132006536#3" to="27882403#1"/>
    <trip id="truck232" type="truck_truck" depart="101.96" departLane="best" from="161357704" to="-38559007#0"/>
    <trip id="truck233" type="truck_truck" depart="102.40" departLane="best" from="184698325#1" to="924733809#0"/>
    <trip id="truck234" type="truck_truck" depart="102.84" departLane="best" from="27318421#0" to="37742047#0"/>
    <trip id="truck235" type="truck_truck" depart="103.28" departLane="best" from="473229942" to="425869935#1"/>
    <trip id="truck236" type="truck_truck" depart="103.72" departLane="best" from="108709760" to="-112427804#2"/>
    <trip id="truck237" type="truck_truck" depart="104.16" departLane="best" from="-945010583" to="38744118#3"/>
    <trip id="truck238" type="truck_truck" depart="104.60" departLane="best" from="471664565#2" to="941732054"/>
    <trip id="truck239" type="truck_truck" depart="105.04" departLane="best" from="172869510#1" to="38559789#5"/>
    <trip id="truck240" type="truck_truck" depart="105.48" departLane="best" from="229293534#2" to="288143118"/>
    <trip id="truck241" type="truck_truck" depart="105.92" departLane="best" from="-38448464#2" to="-425820797#0"/>
    <trip id="truck242" type="truck_truck" depart="106.36" departLane="best" from="189482146#0" to="-191322057#1"/>
    <trip id="truck243" type="truck_truck" depart="106.80" departLane="best" departSpeed="max" from="-942465163#1" to="356396664"/>
    <trip id="truck244" type="truck_truck" depart="107.23" departLane="best" from="131491619" to="-37742083"/>
    <trip id="truck245" type="truck_truck" depart="107.67" departLane="best" from="205500306#1" to="-288143103#2"/>
    <trip id="truck246" type="truck_truck" depart="108.11" departLane="best" from="28620908#1" to="-189482146#1"/>
    <trip id="truck247" type="truck_truck" depart="108.55" departLane="best" from="127108241#6" to="28620507"/>
    <trip id="truck248" type="truck_truck" depart="108.99" departLane="best" from="-188847990#0" to="329309184#5"/>
    <trip id="truck249" type="truck_truck" depart="109.43" departLane="best" from="-28620932#8" to="219482022#2"/>
    <trip id="truck250" type="truck_truck" depart="109.87" departLane="best" from="-203432798#3" to="189615586#0"/>
    <trip id="truck251" type="truck_truck" depart="110.31" departLane="best" from="-38133123#1" to="127088648#3"/>
    <trip id="truck252" type="truck_truck" depart="110.75" departLane="best" from="37915985#1" to="189615586#1"/>
    <trip id="truck253" type="truck_truck" depart="111.19" departLane="best" from="37796658#12" to="504209136#5"/>
    <trip id="truck254" type="truck_truck" depart="111.63" departLane="best" from="-490114474#1" to="-229038418#4"/>
    <trip id="truck255" type="truck_truck" depart="112.07" departLane="best" departSpeed="max" from="-127732073" to="27318747#0"/>
    <trip id="truck256" type="truck_truck" depart="112.51" departLane="best" from="99696200" to="132212052#1"/>
    <trip id="truck257" type="truck_truck" depart="112.95" departLane="best" from="288207510#3" to="449279595#3"/>
    <trip id="truck258" type="truck_truck" depart="113.39" departLane="best" from="288207529#0" to="393219434"/>
    <trip id="truck259" type="truck_truck" depart="113.83" departLane="best" departSpeed="max" from="926878152" to="-38434695"/>
    <trip id="truck260" type="truck_truck" depart="114.27" departLane="best" from="-130695683#3" to="-356396679#2"/>