<?xml version="1.0" encoding="UTF-8"?>

<!-- generated on 2022-07-14 11:41:27 by Eclipse SUMO duarouter Version 1.12.0
<configuration xmlns:xsi="http://www.w3.org/2001/XMLSchema-instance" xsi:noNamespaceSchemaLocation="http://sumo.dlr.de/xsd/duarouterConfiguration.xsd">

    <input>
        <net-file value="C:\Users\Danton%20Moura\Sumo\2022-07-14-11-34-33\osm.net.xml"/>
        <additional-files value="C:\Users\Danton%20Moura\Sumo\2022-07-14-11-34-33\osm_stops.add.xml,C:\Users\Danton%20Moura\Sumo\2022-07-14-11-34-33\osm_pt.rou.xml"/>
        <route-files value="C:\Users\Danton%20Moura\Sumo\2022-07-14-11-34-33\osm.pedestrian.trips.xml"/>
    </input>

    <output>
        <output-file value="C:\Users\Danton%20Moura\Sumo\2022-07-14-11-34-33\osm.pedestrian.rou.xml"/>
        <alternatives-output value="C:\Users\Danton%20Moura\Sumo\2022-07-14-11-34-33\osm.pedestrian.rou.alt.xml"/>
    </output>

    <processing>
        <persontrip.walk-opposite-factor value="0.8"/>
    </processing>

    <time>
        <begin value="0"/>
        <end value="3600"/>
    </time>

    <report>
        <no-warnings value="true"/>
        <ignore-errors value="true"/>
        <no-step-log value="true"/>
    </report>

</configuration>
-->

<routes xmlns:xsi="http://www.w3.org/2001/XMLSchema-instance" xsi:noNamespaceSchemaLocation="http://sumo.dlr.de/xsd/routes_file.xsd">
    <vType id="ped_pedestrian" vClass="pedestrian"/>
    <person id="ped0" type="ped_pedestrian" depart="0.00">
        <walk edges="321457778#3 423395935 451652904 189476997#0 189476997#1 229187719 29221871 27027508 930311687 451652908#0 451652908#1 451652908#2 683571987#0 329357098#0 444013694 130582468#0 130582468#1 130582468#2 907219155 130582468#4 130582468#5 451652906#0 451652906#1 451652906#2 451652906#3 451652906#4 451652906#5 451652906#7 927790174#0 927790174#1 927790174#2 927790173 229187722 229187723 287533404 112414431#0 112414431#1 112414431#2 112414431#3 216490165#0 216490185#0 216698222#7 216698222#8 216698222#9 216698222#10 216698222#11 216698222#12 216698222#13 216698222#14 216698222#15 216698222#16 216698222#17 216698222#18 216852379 -216272426#0 216272462#0 216272462#1 216272422#1 216272410 285557611#1 285557611#0 260285658#6 260285658#7 479027911#0 479027911#1 479027911#2 479027911#3 479027911#4 479027911#5 479027911#6 -286092274#0 285776276#1 491946500#0 491946500#1 491946490 491946501 618007969 618007948#1 618007948#0 -618007952#0 618007974 206686819#0 206686819#1 206686819#2 206686819#4 245395293#0 245395293#1 470020230#3 470020230#2 470020230#1 470020230#0 828534041 471664564#11 68915532 189314913#0 189314807 -189314806#4 189314896#0 189314896#1 -189314896#1"/>
    </person>
    <person id="ped3" type="ped_pedestrian" depart="1.18">
        <walk edges="657562040#2 -232196307#1 657562041#1 657562041#0 189314910 -379971557#3 189314867 945785714 972572603#0 972572603#1 189314836#1 189314816#1 -189314905#1 245395293#2 245395293#1 245395293#0 -206686819#4 -206686819#2 -206686819#1 -206686819#0 618007974 618007952#0 618007948#0 618007948#1 -618007969 491946501 -491946490 491946500#1 491946500#0 -285776276#1 286092274#0 -479027911#6 -479027911#5 -479027911#4 -479027911#3 -479027911#2 -479027911#1 -479027911#0 -260285658#7 -260285658#6 -260285658#5 -260285658#4 -260285658#3 -260285658#2 -230525848 -606416648#2 -606416648#1 -358541120#6 -358541120#5 -358541120#3 1066719744#1 1066719743#4 1066719743#3 1066719745#0 -1066908329#2 -287653147 218816379 -218816373#1 218816371#4 218816371#5 -218549564#2 -218726132#0"/>
    </person>
    <person id="ped9" type="ped_pedestrian" depart="3.55">
        <walk edges="471814905#4 356396907 130688621#4 130688621#3 130688621#2 -172869510#0 172869510#1 562356482 326309689#2 470020239#0 470020239#1 250467590#3 250467590#2 250467590#1 250467590#0 204586770#4 204586770#2 204586770#1 204586770#0 928581237 927813456 927813457 356396117 -108692733#6"/>
    </person>
    <person id="ped14" type="ped_pedestrian" depart="5.53">
        <walk edges="504114517#1 504114517#2 229491223#0 229491223#1 229187752#0 229187746#0 229187746#1 287533416#1 288143116 287933137#1 924507563 203272106 203272108#1 203188334#0 203188321 203188318 203542641#11 203542641#9 203542641#8 203542641#7 203542641#6 203542641#5 203542641#3 203542641#2 203542641#1 203542641#0 929939444 329298642 924505816 454586902#7 454586902#6 454586902#5 454586902#4 454586902#3 454586902#2 454586902#1 454586902#0 229187769#1 229187769#0 924469194#1 229187768 -470073696#2 285605895"/>
    </person>
    <person id="ped19" type="ped_pedestrian" depart="7.50">
        <walk edges="562621055 287533421#0 287533421#1 562608541#0 562608541#1 1053763703#1 813729584 813729583 990874848 990874845 472391844#0 244765836#3 244765836#2 244765836#1 990874843 990874842#1 990874841 990874839#0 930311687 451652908#0 451652908#1 451652908#2 683571987#0 329357098#0 444013694 130582468#0 130582468#1 130582468#2 907219155 130582468#4 130582468#5 451652906#0 451652906#1 451652906#2 451652906#3 451652906#4 451652906#5 451652906#7 927790174#0 927790174#1 927790174#2 927790173 229187722 229187723 287533404 112414431#0 112414431#1 112414431#2 112414431#3 216490165#0 216490185#0 216698222#7 216698222#8 216698222#9 216698222#10 216698222#11 216698222#12 216698222#13 216698222#14 216698222#15 216698222#16 216698222#17 216698222#18 216852379 -216272426#0 216272462#0 216272462#1 216272422#1 216272410 285557611#1 285557611#0 260285658#6 260285658#7 479027911#0 479027911#1 479027911#2 479027911#3 479027911#4 479027911#5 479027911#6 -286092274#0 285776276#1 491946500#0 491946500#1 491946490 491946501 618007969 618007948#1 618007948#0 -618007952#0 618007974 206686819#0 194173702#0 194173702#1 245395298#0"/>
    </person>
    <person id="ped24" type="ped_pedestrian" depart="9.48">
        <walk edges="317876646#1 459205576 471664571#0 459205575 317877522 -236078550#0 -236078550#1 317877523 459205573 317877520#1 208006214 -356396702 356397529 -27090621 206703897 444002067 451652959#1 451652959#0 356398400#5 562103027 131246158 838441689 109195901#0 109195895"/>
    </person>
    <person id="ped27" type="ped_pedestrian" depart="10.66">
        <walk edges="328270950 29209352#2 191976579 471664591#2 471664591#1 471664591#0 318006308 132078183#0 132078183#1 926881268 131451536#0 131451536#1 189615592#1 27126322#0 356396663 356396662#0 356396662#2 356396662#4 356396662#5 356396662#6 356396662#7 126014322#3 -126014322#2 -126014322#1 461423291 235759321#2 126014273 473335491#1 232305355#1 232305355#0 27882403#0 27882403#1 27882403#2 27882403#3 562626706#2 287533428 562621060 562621055 287533421#0 287533421#1 562608541#0 562608541#1 1053763703#1 813729584 813729583 990874848 990874845 472391844#0 244765836#3 244765836#2 244765836#1 990874843 990874842#1 990874841 990874839#0 930311687 451652908#0 451652908#1 451652908#2 683571987#0 329357098#0 444013694 130582468#0 130582468#1 130582468#2 907219155 130582468#4 130582468#5 451652906#0 451652906#1 451652906#2 451652906#3 451652906#4 451652906#5 451652906#7 927790174#0 927790174#1 927790174#2 927790173 229187722 229187723 287533404 112414431#0 112414431#1 112414431#2 112414431#3 216490165#0 216490165#1 216490165#2 216490165#3 504115627#0 504115627#1 504115627#2 504115627#3 927794646#0 927794646#1 108664532#0 108664532#1 356396092 927271585#0 927271585#1 356396095#0 356396095#1 356396989 -356396759 356398365#0 356398365#1 356398365#2 -356397932#1 -356397932#0 287754931#0 287754931#1 287754931#2 287754931#3 287754931#4 287754931#5 287754931#6 287754931#7 287754931#8 356396098#1 356396098#2 356396098#3 472105529 285838892#3 285838892#4 285838892#5"/>
    </person>
    <person id="ped29" type="ped_pedestrian" depart="11.45">
        <walk edges="-356397901#0 356397901#0 356397508 356397901#2 356397901#3 356396907 -189615587#1 -189615587#0 -287533506#1 130688611#2 130688611#0 358444465 260232648 358444460 289587074 356396044#2 356396044#1 356396044#0 451652995 26936224#2 26936224#1 26936224#0 132428152 356395778 131985983#0"/>
    </person>
    <person id="ped31" type="ped_pedestrian" depart="12.24">
        <walk edges="235557839#0 234894794 234829635#1 234829635#2 234829635#3 234829637 470020238#1 470020238#0 470020241#1 470020241#2 326309689#0 326309689#1 -562356482 -172869510#1 172869510#0 130688621#1 130688621#0 477174175#0 356396045 477174174 356396047#4 356396047#3 356396047#2 356396047#1 356396047#0 295701554 471664565#2 471664565#1 471664565#0 562626702 448491269#1 232305629#2 232305629#1 232305629#0 562626710#2 356686655#4 356686655#3 356686658 356686666#1 356686666#0"/>
    </person>
    <person id="ped36" type="ped_pedestrian" depart="14.22">
        <walk edges="606792718 606792795#9 606792795#8 606792795#7 606792795#6 606792795#5 606792795#4 606792795#3 606792795#2 606792795#1 606792795#0 606792773 606792710#0 606792710#1 606792710#2 606792710#3 606792710#4 606792710#5 606792710#6 606792710#7 -606841715#2 -606792702#1 -606792702#0 -1066596250#0 -606792754 -217719140#5 -217719140#4 217763436#0 -606416648#1 -606416648#2 -230525848 260285658#2 260285658#3 260285658#4 260285658#5 260285658#6 260285658#7 479027911#0 479027911#1 479027911#2 479027911#3 479027911#4 285776322#1 285776322#0 285557663#0 285557663#1 285557663#2 356396098#5 285776316#1 -356397346#0 209587901 356396097#1 356396097#0 356396105 108650758 470020251#1 470020251#0 189615589#2 189615589#1 189615589#0 -926787387#1"/>
    </person>
    <person id="ped43" type="ped_pedestrian" depart="16.98">
        <walk edges="976124205#1 356396833 356397976 472105522 285838892#0 472105519 285557663#0 285776322#0 285776322#1 -479027911#4 -479027911#3 -479027911#2 -479027911#1 -479027911#0 -260285658#7 -260285658#6 285557611#0 285557611#1 285557611#2 285557611#3 326538539#0 326538539#1 606416594#0 606416594#1 606416594#2 606416594#3 326538537 285515348 927369045 285515347 285515351#0 285515351#1 285515351#2 606416582#0 606416582#1 1066719750#4 606416578#2 606416579 287653148#1 -926833648 -926843799#0 -926843801#1 -926843801#0 -926843798 -926843803#2 -926843803#1 -926843803#0 926843792 287653101#1 229807948#0 -229807943#1 229807932#0 326309682#3 326309682#2 326309682#1 562621062#0 287533427#6 287533427#5 287533427#4 287533427#3 287533427#2 287533427#1 287533427#0 562603480#5 192667743#1 192667745 192671452 192671454#0 192671454#1 192671454#2 218549587#1"/>
    </person>
    <person id="ped44" type="ped_pedestrian" depart="17.38">
        <walk edges="-219276440#7 -219276440#6 -326309717#1 -219276441#0 -219276441#1 -444048536#1 287533392#1 926843795#0 287653102 -926843796 -926843792 -926843803#0 -926843803#1 -926843803#2 -926843798 926843801#0 926843801#1 926843799#0 926843799#1 170400563#0 170400563#1 287653154#0 287653154#1 1066908329#0 1066719743#4 470020237#3 358541120#5 358541120#6 -606416648#1 -606416648#2 -230525848 260285658#2 260285658#3 260285658#4 260285658#5 260285658#6 260285658#7 479027911#0 479027911#1 479027911#2 479027911#3 479027911#4 479027911#5 479027911#6 -286092274#0 285776276#1 491946500#0 491946500#1 491946490 491946501 618007969 618007948#1 618007948#0 -618007952#0 618007974 206686819#0 206686819#1 206686819#2 206686819#4 206686819#5 206686819#6 206686819#7 206686819#8 206686819#9 358398637#2 189151157#0 326955670 142323364#0 142323364#1 142323364#2 -214760997 214434326#2 214434326#3 -214434326#3"/>
    </person>
    <person id="ped47" type="ped_pedestrian" depart="18.56">
        <walk edges="-216698222#1 -216698222#0 -211061183#1 216272437#0 216272437#1 216272443#1 -216272440#1 606416594#1 606416594#0 326538539#1 326538539#0 285557611#3 285557611#2 285557611#1 285557611#0 260285658#6 260285658#7 479027911#0 479027911#1 479027911#2 479027911#3 479027911#4 479027911#5 479027911#6 -286092274#0 285776276#1 491946500#0 491946500#1 491946490 491946501 618007969 618007948#1 618007948#0 -618007952#0 618007974 206686819#0 206686819#1 206686819#2 206686819#4 206686819#5 206686819#6 206686819#7 206686819#8 206686819#9 358398637#2 189151157#0 326955670 142323364#0"/>
    </person>
    <person id="ped49" type="ped_pedestrian" depart="19.35">
        <walk edges="942523949#0 -826365217 826365218#1 -826365218#0 27126547#3 451652908#0 930311687 990874839#0 990874841 990874842#1 990874843 244765836#1 244765836#2 244765836#3 472391844#0 990874845 990874848 813729583 813729584 1053763703#1 562608541#1 562608541#0"/>
    </person>
    <person id="ped50" type="ped_pedestrian" depart="19.75">
        <walk edges="-126014323#1 126014327#0 126014327#1 126014296#0 126014296#1 126014296#2 126014296#3 356396662#7 356396662#8 -500726022 356396664 562626712#0 356396041#0 30048968#5 30048968#4 30048968#3 30048968#2 -412054547#4 -412054547#3 -412054547#2 412054547#2"/>
    </person>
    <person id="ped51" type="ped_pedestrian" depart="20.14">
        <walk edges="356398243#1 356398243#0 444048502#3 217449600#0 217350278#3 217350278#2 217350250#0 217350250#1 217350328#0 217350328#1 217350328#2 217350328#3 217350249#9 217350305#0 217350262 356396043#1 232312805#0 232312805#1 356396047#1 -27882435#0 -27882435#1 27882435#2 -359881974#2 -359881974#0 260531105#4 260531105#3 562608536 -206516493#2 -206516493#1 562608549 562608548#0 108707554 356686659 -356686662 295701556 562608560 562621058#1 562621058#0 562621062#2 562621062#0 287533427#6 287533427#5 287533427#4 287533427#3 287533427#2 229807931 229807949#1"/>
    </person>
    <person id="ped52" type="ped_pedestrian" depart="20.54">
        <walk edges="-562626717 562626709#1 562626721 562626713#1 562626713#2 356686666#0 356396039#1 27882403#0 27882403#1 27882403#2 27882403#3 562626706#2 287533428 562621060 562621055 287533421#0 287533421#1 562608541#0 562608541#1 1053763703#1 813729584 813729583 990874848 990874845 472391844#0 -356686662 295701556 562608560 562621058#1 562621058#0 562621062#2 326309682#1"/>
    </person>
    <person id="ped55" type="ped_pedestrian" depart="21.72">
        <walk edges="606792710#5 606792710#6 606792692 606792793#0 358541120#0 358541120#1 1066719743#4 1066908329#0 287653154#1 -1066596251#1 -1066596251#0 1066596247 479502666#2 479502666#3 927780519 287533396#0 287533396#1 287533396#2 130582468#0 130582468#1 130582468#2 907219155 130582468#4 130582468#5 451652906#0 -527364319 -527364325#0"/>
    </person>
    <person id="ped58" type="ped_pedestrian" depart="22.91">
        <walk edges="-907710822 -907710821 -217763435#2 -217763435#1 -217763435#0 217719140#5 606792754 1066596250#0 606792702#0 606792702#1 606841715#2 606792710#7 606792710#6 606792710#5 606792710#4 606792710#3 606792710#2 606792710#1 606792710#0 606792773 606792795#0 606792795#1 606792795#2 606792795#3 606792795#4 606792795#5 606792795#6 606792795#7 606792795#8 606792795#9 606792775#5 606792775#4 606792775#3 606792775#2 606792775#1 606792775#0 606792797#1 606792797#0 606792777#5 606792777#3 606792777#2 606792777#1 606792777#0 208262470#3 208262470#2 208262470#1 208262470#0 606847211 234507948#0 319654944#2"/>
    </person>
    <person id="ped59" type="ped_pedestrian" depart="23.30">
        <walk edges="285838892#2 -472105533 285776287#0 285776287#1 285776287#2 285776287#3 285776287#4 285776287#5 285776287#6 285776287#7 285776287#8 285776287#9 285776287#10 285776287#11 973420732 -472105531#0 927807389 326538548#3 326538548#1 326538548#0 327855514 285732177#1 921626458 921626456 -244114985 472144379#0 472144379#1 472144379#2 472144379#4 472144379#5 472144379#6 472144379#7 472144379#8 472144379#9 474807468#0 349927971 356396095#5 356396095#4 356396095#3 356396095#2 356396095#1 356396095#0 927271585#1 927271585#0 356396092 108664532#1 108664532#0 927794646#1 927794646#0 504115627#3 504115627#2 504115627#1 504115627#0 216490165#3 216490165#2 216490165#1 216490165#0 112414431#3 112414431#2 112414431#1 112414431#0 287533404 229187723 229187722 927790173 927790174#2 927790174#1 927790174#0 451652906#7 451652906#5 451652906#4 451652906#3 451652906#2 451652906#1 451652906#0 130582468#5 130582468#4 -907219155 130582468#2 130582468#1 130582468#0 444013694 329357098#0 683571987#0 451652908#2 451652908#1 451652908#0 930311687 990874839#0 990874841 990874842#1 990874843 244765836#1 244765836#2 244765836#3 356686659 108707554 562608548#0 562608548#1 562608544 356686651 562621057 562621061#2 562621054#0 448491269#0 448491269#1 562626708 -356396664 -500726022 356396662#8 356396662#7 356396662#6 356396662#5 356396662#4 356396662#2 356396662#0 356396663 27126322#0 189615592#1 131451536#1 131451536#0 926881268 132078183#1 132078183#0 318006308 471664591#0 471664591#1 471664591#2 191976579 29209352#2 -328270950"/>
    </person>
    <person id="ped64" type="ped_pedestrian" depart="25.28">
        <walk edges="606792745#0 286278492#9 606792747#0 606792747#1 606792747#2 606792748 606792779#0 606792778 -606792777#5 287653115#0 287653115#1 -356686653#0 356686653#1 356686653#2 356686653#3 562603482 562603480#5 287533427#0 287533427#1 287533427#2 287533427#3 287533427#4 287533427#5 287533427#6 562621062#0 562621062#2 562621058#0 562621058#1 562608560 295701556 356686662 356686659 108707554 562608548#0 562608549 206516493#1 206516493#2 562608536 485965704"/>
    </person>
    <person id="ped65" type="ped_pedestrian" depart="25.67">
        <walk edges="-915346861 -472144382#4 -472144382#3 -915346859 472144369#1 -244114990#4 -472144360#2 -472144360#1 -472144360#0 -285732185 -215504909#0 356395757 606416601 285557611#0 285557611#1 -216272410 -216272422#1 -216272462#1 -216272462#0 -216272426#0"/>
    </person>
    <person id="ped66" type="ped_pedestrian" depart="26.07">
        <walk edges="606792741#4 606792724 606792795#4 606792795#3 606792795#2 606792685 287653113#7 287653113#6 287653134 287653113#4 287653113#3 -287653110#2 -287653110#1 -287653110#0 -358541116 -1066908329#2 1066719745#0 1066719743#3 1066908329#0 287653154#1 -1066596251#1 -1066596251#0 1066596247 479502666#2 479502666#3 927780519 287533396#0 287533396#1 287533396#2 130582467 451652887#0 451652887#1 928581237 204586770#0 204586770#1 204586770#2 204586770#4 250467590#0 250467590#1 250467590#2 250467590#3 470020239#1 470020239#0 326309689#2 562356482 172869510#1 -172869510#0 130688621#2 130688621#3 130688621#4 356396907 -189615587#1 -189615587#0 471814905#2 924848286#1"/>
    </person>
    <person id="ped67" type="ped_pedestrian" depart="26.46">
        <walk edges="-218549587#1 485351176#0 356686653#2 356686653#3 562603482 562603480#5 287533427#0 287533427#1 287533427#2 287533427#3 287533427#4 287533427#5 287533427#6 562621062#0 562621062#2 562621058#0 562621058#1 562608560 295701556 356686662 356686659 108707554 562608548#0 562608548#1 562608544 356686651 562621057 562621061#2 562621054#0 448491269#0 448491269#1 562626708 562626712#0 358291509#0 -217350298#1 217350248#1 217350248#2 217350248#3 217350248#4 217350248#5 -217350341#11 -217350341#10 -217350341#9 -217350341#8 -217350341#7 -217350341#6 -217350341#5 -217350341#4 -217350341#3 -217350341#2 -217350341#1 -217350341#0 217350278#0 217350278#1"/>
    </person>
    <person id="ped70" type="ped_pedestrian" depart="27.65">
        <walk edges="216272456 216698219#2 216698219#3 216698219#4 216272439 230525842#3 230525842#2 230525842#0 285605882#1 927799133 927807390 472105531#0 472105531#1 -285776287#11 -285776287#10 -285776287#9 -285776287#8 -285776287#7 -285776287#6 -285776287#5 -285776287#4 -285776287#3 -285776287#2 -285776287#1 -285776287#0 285557663#2 356396098#5 285776316#1 -356397346#0 209587901 356396097#1 356396097#0 -203432814 -356396676#0 -356396676#1 -356396676#2 -356396676#3 -356396676#4 -356396676#5 203246491#0 203246491#1 -189368019 786581777#2 786581777#1 786581777#0 189314872 189314917 488255339 194813844 194813847 232196313#32 232196313#31 232196313#28 232196313#27 232196313#26 232196313#25 232196313#24"/>
    </person>
    <person id="ped71" type="ped_pedestrian" depart="28.04">
        <walk edges="-561763665 -561763669#2 561763668#0 220083135#5 561899148 561899166#0 561899166#1 561899147 229187809#0 229187809#1 28620573#0 28620573#1 28620573#2 28620573#3 28620573#4 28620573#5 28620573#6 471957492 471957495#0 471957495#1 219333276#0 219333276#1 219333276#2 924467053 923444748#0 923444748#1 356396575 356396576#0 356396576#1 927263327#0 927263327#1 927263327#2 927263326#0 27027377#0 356396084 356396082#1 356396082#0 326538549#2 326538549#1 326538549#0 356396088#1 356396088#0 393647634#2 393647634#1 356396096#1 356396096#0 326538547#7 326538547#6 326538547#5 326538547#4 326538547#3 326538547#2 326538547#1 326538547#0 356396087#4 356396087#3 356396087#2 356396087#1 356396087#0 356396094#2 356396094#1 209587901 356396097#1 356396097#0 -203432814 -356396676#0 -356396676#1 -356396676#2 -356396676#3 -356396676#4 -356396676#5 203246491#0 203246491#1 -189368019 68915542#0 68915542#1 785755603 785755606#1 785755606#2 785755589 785755609#0 926785708 927264252 785755601#0 785755601#1 785755601#2 927264251 184746983#6 184746983#5 184746983#4 184746983#3 184746983#1 184746983#0 927268395 -449212834#2 449212834#0 287950207#0 287950207#1 287950212#0 599953140"/>
    </person>
    <person id="ped76" type="ped_pedestrian" depart="30.01">
        <walk edges="205543036#2 -205543036#1 -205543036#0 205543033 208354788 208354791#2 229038417 318074943#0 -412174594#0 219276448"/>
    </person>
    <person id="ped81" type="ped_pedestrian" depart="31.99">
        <walk edges="-450430009 -424606369 285838898#1 285838898#3 285838898#5 356396087#1 356396087#2 356396087#3 356396087#4 326538547#0 326538547#1 326538547#2 326538547#3 326538547#4 326538547#5 326538547#6 326538547#7 356396096#0 356396096#1 393647634#1 393647634#2 356396088#0 356396088#1 326538549#0 326538549#1 326538549#2 356396082#0 356396082#1 356396084 27027377#0 927263326#1 470073701 470073702#0 470073702#1 470073702#2 527320346#0 527320343 229187769#0 229187769#1 454586902#0 454586902#1 454586902#2 454586902#3 454586902#4 454586902#5 454586902#6 454586902#7 924505816 329298642 929939444 203542641#0 203542641#1 203542641#2 203542641#3 203542641#5 203542641#6 203542641#7 203542641#8 203542641#9 203542641#11 203188318 203188321 203188334#0 203272108#1 -203272106 -203188338 287933137#1 -930398539 287533416#1 356396019#6 356396019#5 356396019#4 356396019#3 356396019#2 356396019#1 356396019#0 287533411#1 287533411#0 772720766#0 772557209#2 772557203#1 772557203#0"/>
    </person>
    <person id="ped82" type="ped_pedestrian" depart="32.38">
        <walk edges="561912369#1 471957495#0 -471957492 28620573#6 28620573#5 28620573#4 28620573#3 28620573#2 28620573#1 28620573#0 229187809#1 229187809#0 561899147 561899166#1 561899166#0 561899148 326538545 561899167#1 561899150 561899154#2 561899154#0 561899156#2 356397906#0 561899156#0 561899155#3 561899155#2 561899155#1 561899155#0 229187728 470020238#4 470020238#3 470020238#2 470020238#1 470020238#0 470020241#1 470020241#2 326309689#0 326309689#1 -562356482 -172869510#1 172869510#0 130688621#1 232313319#0 356397393 929879438 130688613#0 27806373#1 217449600#1 217350278#3 217350278#2 217350265#3 244633530#0 244633530#1 244633530#2 217350269#1 217350269#2 217350269#3 217350284#0 -217350343#9 -217350343#8 217350340#12 217350340#13 217350340#14 217350340#15 -412054550#3 -217350316#2 -217350316#1"/>
    </person>
    <person id="ped83" type="ped_pedestrian" depart="32.78">
        <walk edges="-451653288 -451653284 -218873866#1 -218873866#0 317132600 317132598 316827986#1 317132602#2 316827986#3 -27103295#3 -27103295#2 -27103295#1 -27103295#0 444048516#0 444048516#1 321457778#0 321457778#1 321457778#2 321457778#3 321457778#4 423395938 205416278 477174168 -287533470 27882417 260531105#0 260531105#3 260531105#4 359881974#0 359881974#2 359881974#3 359881974#4 359881974#5 359881974#6 359881974#7 496328996 772557192 358291508#0 358291508#11 358291508#10 358291508#9 772557199 772557457 772557456 326309689#2 326309689#1 326309689#0 470020241#2 470020241#1 470020238#0 470020238#1 470020238#2 470020238#3 470020238#4 229187728 561899155#0 561899155#1 561899155#2 561899155#3 561899156#0 356397906#0 561899156#2 561899154#0 561899154#2 561899150 561899167#1 326538545 561899148 561899166#0 561899166#1 561899147 561899164 356396296#0"/>
    </person>
    <person id="ped89" type="ped_pedestrian" depart="35.15">
        <walk edges="200348191 -926832646#0 562621057 356686651 562608544 562608548#1 562608548#0 108707554 356686659 244765836#3 244765836#2 244765836#1 990874843 990874842#1 990874841 990874839#0 930311687 451652908#0 451652908#1 451652908#2 683571987#0 329357098#0 444013694 130582468#0 130582468#1 130582468#2 907219155 130582468#4 130582468#5 451652906#0 451652906#1 451652906#2 451652906#3 451652906#4 451652906#5 451652906#7 927790174#0 927790174#1 927790174#2 927790173 229187722 229187723 287533404 112414431#0 112414431#1 112414431#2 112414431#3 216490165#0 216490185#0 -216493703 216272341#4 216272341#0 216272370 216272366 216272354 216272339#7 216272339#8 216272339#9 216272339#10"/>
    </person>
    <person id="ped91" type="ped_pedestrian" depart="35.94">
        <walk edges="951557132#1 951557131#0 236808333#3 236808333#4 236808333#5 606792843#2 606792843#1 338078455#1 606792828#1 606792828#0 358541124#0 358541117#3 607382131 356831240#4 356831240#3 1053194004#4 1053194004#3 356831240#0 -219276447 -407596052 -219276443#2 -219276443#1 219276443#0 1070812749#1 1070812750#1 130921685#0 287533429#2 232317691 287533427#1 287533427#2 287533427#3 229807929 -229807933#1"/>
    </person>
    <person id="ped93" type="ped_pedestrian" depart="36.73">
        <walk edges="562621054#0 562621061#2 562621057 356686651 562608544 562608548#1 562608548#0 108707554 356686659 244765836#3 244765836#2 244765836#1 990874843 990874842#1 990874841 990874839#0 930311687 451652908#0 451652908#1 451652908#2 683571987#0 329357098#0 444013694 130582468#0 130582468#1 130582468#2 907219155 130582468#4 130582468#5 451652906#0 451652906#1 451652906#2 451652906#3 451652906#4 451652906#5 451652906#7 927790174#0 927790174#1 927790174#2 927790173 229187722 229187723 287533404 112414431#0 112414431#1 112414431#2 112414431#3 216490165#0 216490165#1 216490165#2 216490165#3 504115627#0 504115627#1 504115627#2 504115627#3 927794646#0 927794646#1 108664532#0 108664532#1 356396092 927271585#0 927271585#1 356396095#0 356396095#1 356396989 -356396759 356398365#0 356398365#1 356398365#2 -356397932#1 -356397932#0 287754931#0 472105499 -472105497 -285776287#11 -285776287#10 -285776287#9 -285776287#8 -285776287#7 -285776287#6 -285776287#5 -285776287#4 -285776287#3 -285776287#2 -285776287#1 -285776287#0 -472105533"/>
    </person>
    <person id="ped95" type="ped_pedestrian" depart="37.52">
        <walk edges="197554368 197554364#9 197554364#8 197554371 197554359#4 197554432#2 189314904#0 189314849 232196313#22 232196313#23 232196313#24 232196313#25 232196313#26 232196313#27 232196313#28 232196313#31 232196313#32 194813847 488255322 488255350 786581777#1 786581777#2 -189368019 -203246491#1 -203246491#0 -356396676#5 -356396676#4 -356396676#3 -356396676#2 -356396676#1 -356396676#0 -203432814 356396097#0 356396097#1 209587901 356396094#1 356396094#2 356396087#0 356396087#1 356396087#2 356396087#3 356396087#4 326538547#0 326538547#1 326538547#2 326538547#3 326538547#4 326538547#5 326538547#6 326538547#7 356396096#0 356396096#1 393647634#1 393647634#2 356396088#0 356396088#1 326538549#0 326538549#1 326538549#2 356396082#0 356396082#1 356396084 27027377#0 561912365#1 927263324 927263323#0 927263323#1 927263323#2 924467050 924467049#0 924467049#1 356396573 924467052 924467051 222691387#1 561912358 561912364#0 561912364#1 561912364#2 -471957492 28620573#6 28620573#5 28620573#4 28620573#3 28620573#2 28620573#1 28620573#0 229187809#1 229187809#0 561899147 561899166#1 356397691#0 356397691#1 356397691#2 561899163#1 561899145#0 561899145#1 131975115#2 131975115#3 131975115#4 219726617#3 219726617#5 219726617#6 925236166 925236168#3 925236168#2 925236168#0 219726620#2 219726620#0 229187910#1 356398152#1 500493329#0 356396125#0 356395830#0 -648917794#2 907205004#1 -648917793#1"/>
    </person>
    <person id="ped96" type="ped_pedestrian" depart="37.91">
        <walk edges="-472144360#1 -472144360#0 -285732185 -215504909#0 356395757 606416601 285557611#0 285557611#1 -216272410 -216272422#1 -216272462#1 -216272462#0 216272426#0 -216852379 -216698222#18 -216698222#17 -216698222#16 -216698222#15 -216698222#14 -216698222#13 -216698222#12 -216698222#11 -216698222#10 -216698222#9 -216698222#8 -216698222#7 -216490185#0 216490165#0 112414431#3 112414431#2 112414431#1 112414431#0 287533404 229187723 229187722 927790173 927790174#2 927790174#1 927790174#0 451652906#7 233475368 -451652907#1 235554332 -907262727 907262727"/>
    </person>
    <person id="ped97" type="ped_pedestrian" depart="38.31">
        <walk edges="207077195#0 674250172 -467642858#0 -467642851 367495946 367495938 188291493 317875191 188291441 326465661 514621082 326465658 317875024 129177010#0 129177002 368213493 326465657#0 447931031 237136949#0 237136949#1 244633524 -287533442#2 244633516#0 244633516#1 48150735#1 236839667 479385668#1 207989377#2 171797495#0 -451652903 287533401 184701785 208356048 451652904 189476997#0 207989397 -244765838 1053763700 562608554"/>
    </person>
    <person id="ped98" type="ped_pedestrian" depart="38.70">
        <walk edges="232196313#32 232196313#31 232196313#28 232196313#27 232196313#26 232196313#25 -189314848 946398123#8 946398123#9 946398123#10 189314904#0 197554432#2 197554432#1 197554396 194043013#1 194043013#0 -189314815#3 -189314815#1 -189314815#0 189314836#0 -972572603#1 189314865 945751934 470020230#2 470020230#1 194043016#1 194043016#0 206686819#7 206686819#8 206686819#9 214434374#1 214434389 -214434389"/>
    </person>
    <person id="ped99" type="ped_pedestrian" depart="39.10">