<?xml version="1.0" ?><!-- generated on 2022-07-26 15:59:58 by Eclipse SUMO netedit Version 1.12.0
--><routes xmlns:xsi="http://www.w3.org/2001/XMLSchema-instance" xsi:noNamespaceSchemaLocation="http://sumo.dlr.de/xsd/routes_file.xsd">
    <vType id="pt2_bus" length="17.90" vClass="bus" guiShape="bus/flexible" height="3.00" personCapacity="150"/>
    <vType id="pt_aerialway" vClass="bus"/>
    <vType id="pt_bus" vClass="bus" guiShape="bus"/>
    <vType id="pt_ferry" vClass="ship"/>
    <vType id="pt_light_rail" vClass="rail_urban"/>
    <vType id="pt_minibus" vClass="bus"/>
    <vType id="pt_monorail" vClass="rail"/>
    <vType id="pt_share_taxi" vClass="taxi"/>
    <vType id="pt_subway" vClass="rail_urban"/>
    <vType id="pt_train" vClass="rail"/>
    <vType id="pt_tram" vClass="tram"/>
    <vType id="pt_trolleybus" vClass="bus"/>
    
    <!-- <route id="r_0" edges="606416582#1 927780519 287533396#0 287533396#1 287533396#2 130582468#0 130582468#1 130582468#2 130582468#3 130582468#4 130582468#5 451652906#0 451652906#1 451652906#2 451652906#3 451652906#4 451652906#5 451652906#7 927790174#0 927790174#1 927790174#2 907224170#0 907224170#1 189615584#1 189615584#2 189615584#3 927835742#0 927835742#1 927835741 285515351#0 285515351#1 285515351#2"/>
   
    <route id="Mercado-Publico-Orla" edges="129176988 926832643#2 444048503 444002070 126627653 444002071 444002072#0 444002072#1 444002072#2 444058036#0 444058036#1 415931799#0 415931799#1 415931799#2 415931799#3 451653029#0 451653029#2 471664572#0 471664572#1 471664572#3 896029636#0 896029636#1 444013695#0 444013695#1 444013695#2 326467632 606416653#0 606416653#1 287533511#0 287533511#1 606416652#1 606416652#2 606416652#3 358541117#0 358541117#1 358541117#2 358541117#3 358541119 446924092 926892119 287653107#0 287653107#1 287653103#0 287653103#1 287653104 470020237#0 470020237#3 1066596248#0 1066596248#1 1066596248#2 606416648#1 606416648#2 285515346 285515349#1 606416588 326538538#0 326538538#1 326538538#2 326538538#3 326538538#4 606416635 285557623#0 285557623#1 356395756#0 356395756#1 356395756#2 285739468 285557617#0 285557617#1 930336030 930336029 927365544 285557620#1 927365543 226319817#0 226319817#1 226319817#3 226319817#4 226319817#5 226319817#6 226319817#7 226319817#8 226319817#9 356396099 618007936 618007942 68911216 451653051 356396100#0 356396100#1 470020245#0 470020245#1 189381380 786581777#0 786581777#1 786581777#2 68915542#0 68915542#1 785755603"/> -->

    <route id="Salgado-PadreCacique" edges="612442387 208356049 206611680#0 206611680#1 206611680#2 229038402 132415155 27882403#0 27882403#1 27882403#2 27882403#3 562626715 926832644 287533428 562621056 562621055 287533421#0 287533421#1 562608540 356686647 451653024#0 451653024#1 562608553 27126536 244765838 207989398 229187719 29221871 27027508 930311687 451652908#0 451652908#1 451652908#2 683571988#0 444013694 130582468#0 130582468#1 130582468#2 130582468#3 130582468#4 130582468#5 451652906#0 451652906#1 451652906#2 451652906#3 451652906#4 451652906#5 451652906#7 927790174#0 927790174#1 927790174#2 927790173 229187722 229187723 287533404 112414431#0 112414431#1 112414431#2 112414431#3 216490165#0 216490165#1 216490165#2 216490165#3 504115627#0 504115627#1 504115627#2 504115627#3 927794646#0 927794646#1 108664532#0 108664532#1 356396092 927271585#0 927271585#1 356396095#0 356396095#1 356396095#2 356396095#3 356396095#4 356396095#5 112422904 356396093#0 356396093#2 326538548#0 326538548#1 326538548#3 287754931#0 287754931#1 287754931#2 287754931#3 287754931#4 287754931#5 287754931#6 287754931#7 287754931#8 356396098#1 356396098#2 356396098#3 356396098#5 356396098#6 356396090 356396091 927304029 356396083 926810387 285776274 285776275#0 285776275#1 471664573 226319817#0 226319817#1 226319817#3 226319817#4 226319817#5 226319817#6 226319817#7 226319817#8 226319817#9 356396099 618007936 618007942 68911216 451653051 356396100#0 356396100#1 470020245#0 470020245#1 189381380 786581777#0 786581777#1 786581777#2 68915542#0 68915542#1 785755603">
        <stop busStop="P1_Salgado" duration="60.00"/>
        <stop busStop="P1_Avai" duration="20.00"/>
        <stop busStop="P1_Loureiro" duration="20.00"/>
        <stop busStop="P1_Ponte_Pedra" duration="20.00"/>
        <stop busStop="P1_Borges" duration="20.00"/>
        <stop busStop="P2_Borges" duration="20.00"/>
        <stop busStop="P3_Borges" duration="20.00"/>
        <stop busStop="P4_Borges" duration="20.00"/>
        <stop busStop="P1_Padre_Cacique" duration="20.00"/>
        <stop busStop="P2_Padre_Cacique" duration="20.00"/>
        <stop busStop="P3_Padre_Cacique" duration="20.00"/>
        <stop busStop="P1_Icarai" duration="20.00"/>
    </route>

    <vehicle id="BRT1" type="pt2_bus" route="Salgado-PadreCacique" depart="599.8198295537147" line="bus">
    </vehicle>
    <vehicle id="BRT2" type="pt2_bus" route="Salgado-PadreCacique" depart="1099.3251016229833" line="bus">
    </vehicle>
    <vehicle id="BRT3" type="pt2_bus" route="Salgado-PadreCacique" depart="1598.4696965084904" line="bus">
    </vehicle>
    <vehicle id="BRT4" type="pt2_bus" route="Salgado-PadreCacique" depart="2112.0736924705993" line="bus">
    </vehicle>
    <vehicle id="BRT5" type="pt2_bus" route="Salgado-PadreCacique" depart="2600.187020999472" line="bus">
    </vehicle>
    <vehicle id="BRT6" type="pt2_bus" route="Salgado-PadreCacique" depart="3100.5218033689125" line="bus">
    </vehicle>
    <vehicle id="BRT7" type="pt2_bus" route="Salgado-PadreCacique" depart="3600.6066626537395" line="bus">
    </vehicle>
    <vehicle id="BRT8" type="pt2_bus" route="Salgado-PadreCacique" depart="4203.199153845615" line="bus">
    </vehicle>
    <vehicle id="BRT9" type="pt2_bus" route="Salgado-PadreCacique" depart="4595.041151049345" line="bus">
    </vehicle>
     <vehicle id="BRT10" type="pt2_bus" route="Salgado-PadreCacique" depart="5196.6585847858805" line="bus">
    </vehicle>
     <vehicle id="BRT11" type="pt2_bus" route="Salgado-PadreCacique" depart="5600.995510798057" line="bus">
    </vehicle>
     <vehicle id="BRT12" type="pt2_bus" route="Salgado-PadreCacique" depart="6100.988529278339" line="bus">
    </vehicle>
    <vehicle id="BRT13" type="pt2_bus" route="Salgado-PadreCacique" depart="6601.15743237174" line="bus">
    </vehicle>
    <vehicle id="BRT14" type="pt2_bus" route="Salgado-PadreCacique" depart="7101.202189039928" line="bus">
    </vehicle>
    <vehicle id="BRT15" type="pt2_bus" route="Salgado-PadreCacique" depart="7601.358095343101" line="bus">
    </vehicle>
    <vehicle id="BRT16" type="pt2_bus" route="Salgado-PadreCacique" depart="8101.41902167211" line="bus">
    </vehicle>
    <vehicle id="BRT17" type="pt2_bus" route="Salgado-PadreCacique" depart="8601.506769244732" line="bus">
    </vehicle>
    <vehicle id="BRT18" type="pt2_bus" route="Salgado-PadreCacique" depart="9101.578763095593" line="bus">
    </vehicle>
    <vehicle id="BRT19" type="pt2_bus" route="Salgado-PadreCacique" depart="9601.731393299011" line="bus">
    </vehicle>
    <vehicle id="BRT20" type="pt2_bus" route="Salgado-PadreCacique" depart="10101.815217528558" line="bus">
    </vehicle>
    <vehicle id="BRT21" type="pt2_bus" route="Salgado-PadreCacique" depart="10601.906386177725" line="bus">
    </vehicle>
    <vehicle id="BRT22" type="pt2_bus" route="Salgado-PadreCacique" depart="11101.991337531335" line="bus">
    </vehicle>
     <vehicle id="BRT23" type="pt2_bus" route="Salgado-PadreCacique" depart="11602.198922069396" line="bus">
    </vehicle>
     <vehicle id="BRT24" type="pt2_bus" route="Salgado-PadreCacique" depart="12102.286182167523" line="bus">
    </vehicle>
  


    <personFlow id="personFlow_0" begin="0" end="1800" number="366">
        <walk from="612442387" busStop="P1_Salgado"/>
        <ride busStop="P1_Icarai" lines="bus"/>
        <walk to="785755603"/> 
    </personFlow>
    
    <personFlow id="personFlow_1" begin="1800" end="3600" number="677">
        <walk from="612442387" busStop="P1_Salgado"/>
        <ride busStop="P1_Icarai" lines="bus"/>
        <walk to="785755603"/> 
    </personFlow>
    <personFlow id="personFlow_2" begin="3600" end="5400" number="696">
        <walk from="612442387" busStop="P1_Salgado"/>
        <ride busStop="P1_Icarai" lines="bus"/>
        <walk to="785755603"/> 
    </personFlow>
    <!-- <personFlow id="personFlow_3" begin="0" end="1200" number="200">
        <walk from="244765838" busStop="P1_Ponte_Pedra"/>
        <ride busStop="P1_Icarai" lines="bus"/>
        <walk to="785755603"/> 
    </personFlow>
    <personFlow id="personFlow_4" begin="0" end="1300" number="200">
        <walk from="451652908#2" busStop="P1_Borges"/>
        <ride busStop="P1_Icarai" lines="bus"/>
        <walk to="785755603"/> 
    </personFlow>
    <personFlow id="personFlow_5" begin="0" end="1400" number="200">
        <walk from="927790174#1" busStop="P2_Borges"/>
        <ride busStop="P1_Icarai" lines="bus"/>
        <walk to="785755603"/> 
    </personFlow>
    <personFlow id="personFlow_6" begin="0" end="1500" number="200">
        <walk from="112414431#0" busStop="P3_Borges"/>
        <ride busStop="P1_Icarai" lines="bus"/>
        <walk to="785755603"/> 
    </personFlow>
    <personFlow id="personFlow_7" begin="0" end="1600" number="100">
        <walk from="108664532#1" busStop="P4_Borges"/>
        <ride busStop="P1_Icarai" lines="bus"/>
        <walk to="785755603"/> 
    </personFlow> -->
</routes>