<?xml version="1.0" ?><!-- generated on 2022-07-26 15:59:58 by Eclipse SUMO netedit Version 1.12.0
--><routes xmlns:xsi="http://www.w3.org/2001/XMLSchema-instance" xsi:noNamespaceSchemaLocation="http://sumo.dlr.de/xsd/routes_file.xsd">
    <vType id="pt2_bus" length="17.90" vClass="bus" guiShape="bus/flexible" height="3.00" personCapacity="150"/>
    <vType id="pt_aerialway" vClass="bus"/>
    <vType id="pt_bus" vClass="bus" guiShape="bus"/>
    <vType id="pt_ferry" vClass="ship"/>
    <vType id="pt_light_rail" vClass="rail_urban"/>
    <vType id="pt_minibus" vClass="bus"/>
    <vType id="pt_monorail" vClass="rail"/>
    <vType id="pt_share_taxi" vClass="taxi"/>
    <vType id="pt_subway" vClass="rail_urban"/>
    <vType id="pt_train" vClass="rail"/>
    <vType id="pt_tram" vClass="tram"/>
    <vType id="pt_trolleybus" vClass="bus"/>
    
    <!-- <route id="r_0" edges="606416582#1 927780519 287533396#0 287533396#1 287533396#2 130582468#0 130582468#1 130582468#2 130582468#3 130582468#4 130582468#5 451652906#0 451652906#1 451652906#2 451652906#3 451652906#4 451652906#5 451652906#7 927790174#0 927790174#1 927790174#2 907224170#0 907224170#1 189615584#1 189615584#2 189615584#3 927835742#0 927835742#1 927835741 285515351#0 285515351#1 285515351#2"/>
   
    <route id="Mercado-Publico-Orla" edges="129176988 926832643#2 444048503 444002070 126627653 444002071 444002072#0 444002072#1 444002072#2 444058036#0 444058036#1 415931799#0 415931799#1 415931799#2 415931799#3 451653029#0 451653029#2 471664572#0 471664572#1 471664572#3 896029636#0 896029636#1 444013695#0 444013695#1 444013695#2 326467632 606416653#0 606416653#1 287533511#0 287533511#1 606416652#1 606416652#2 606416652#3 358541117#0 358541117#1 358541117#2 358541117#3 358541119 446924092 926892119 287653107#0 287653107#1 287653103#0 287653103#1 287653104 470020237#0 470020237#3 1066596248#0 1066596248#1 1066596248#2 606416648#1 606416648#2 285515346 285515349#1 606416588 326538538#0 326538538#1 326538538#2 326538538#3 326538538#4 606416635 285557623#0 285557623#1 356395756#0 356395756#1 356395756#2 285739468 285557617#0 285557617#1 930336030 930336029 927365544 285557620#1 927365543 226319817#0 226319817#1 226319817#3 226319817#4 226319817#5 226319817#6 226319817#7 226319817#8 226319817#9 356396099 618007936 618007942 68911216 451653051 356396100#0 356396100#1 470020245#0 470020245#1 189381380 786581777#0 786581777#1 786581777#2 68915542#0 68915542#1 785755603"/> -->

    <route id="Salgado-PadreCacique" edges="612442387 208356049 206611680#0 206611680#1 206611680#2 229038402 132415155 27882403#0 27882403#1 27882403#2 27882403#3 562626715 926832644 287533428 562621056 562621055 287533421#0 287533421#1 562608540 356686647 451653024#0 451653024#1 562608553 27126536 244765838 207989398 229187719 29221871 27027508 930311687 451652908#0 451652908#1 451652908#2 683571988#0 444013694 130582468#0 130582468#1 130582468#2 130582468#3 130582468#4 130582468#5 451652906#0 451652906#1 451652906#2 451652906#3 451652906#4 451652906#5 451652906#7 927790174#0 927790174#1 927790174#2 927790173 229187722 229187723 287533404 112414431#0 112414431#1 112414431#2 112414431#3 216490165#0 216490165#1 216490165#2 216490165#3 504115627#0 504115627#1 504115627#2 504115627#3 927794646#0 927794646#1 108664532#0 108664532#1 356396092 927271585#0 927271585#1 356396095#0 356396095#1 356396095#2 356396095#3 356396095#4 356396095#5 112422904 356396093#0 356396093#2 326538548#0 326538548#1 326538548#3 287754931#0 287754931#1 287754931#2 287754931#3 287754931#4 287754931#5 287754931#6 287754931#7 287754931#8 356396098#1 356396098#2 356396098#3 356396098#5 356396098#6 356396090 356396091 927304029 356396083 926810387 285776274 285776275#0 285776275#1 471664573 226319817#0 226319817#1 226319817#3 226319817#4 226319817#5 226319817#6 226319817#7 226319817#8 226319817#9 356396099 618007936 618007942 68911216 451653051 356396100#0 356396100#1 470020245#0 470020245#1 189381380 786581777#0 786581777#1 786581777#2 68915542#0 68915542#1 785755603">
        <stop busStop="P1_Salgado" duration="60.00"/>
        <stop busStop="P1_Avai" duration="20.00"/>
        <stop busStop="P1_Loureiro" duration="20.00"/>
        <stop busStop="P1_Ponte_Pedra" duration="20.00"/>
        <stop busStop="P1_Borges" duration="20.00"/>
        <stop busStop="P2_Borges" duration="20.00"/>
        <stop busStop="P3_Borges" duration="20.00"/>
        <stop busStop="P4_Borges" duration="20.00"/>
        <stop busStop="P1_Padre_Cacique" duration="20.00"/>
        <stop busStop="P2_Padre_Cacique" duration="20.00"/>
        <stop busStop="P3_Padre_Cacique" duration="20.00"/>
        <stop busStop="P1_Icarai" duration="20.00"/>
    </route>
    <route id="Mercado-Publico" edges="926832642#1 69749638#1 69749638#2 69749638#3 69749638#4 69749638#5 444002070 126627650 130584732 477174192#0 477174192#1 287533477#0 287533477#1 287533477#2 451653501 219248033 287533480 771372295 451653094#0 451653094#1 287533401 184701785 208356048 451652904 189476997#0 189476997#1 229187719 29221871 27027508 930311687 451652908#0 451652908#1 451652908#2 683571988#0 444013694 130582468#0 130582468#1 130582468#2 130582468#3 130582468#4 130582468#5 451652906#0 451652906#1 451652906#2 451652906#3 451652906#4 451652906#5 451652906#7 927790174#0 927790174#1 927790174#2 927790173 229187722 229187723 287533404 112414431#0 112414431#1 112414431#2 112414431#3 216490165#0 216490165#1 216490165#2 216490165#3 504115627#0 504115627#1 504115627#2 504115627#3 927794646#0 927794646#1 108664532#0 108664532#1 356396092 927271585#0 927271585#1 356396095#0 356396095#1 356396095#2 356396095#3 356396095#4 356396095#5 112422904 356396093#0 356396093#2 326538548#0 326538548#1 326538548#3 287754931#0 287754931#1 287754931#2 287754931#3 287754931#4 287754931#5 287754931#6 287754931#7 287754931#8 356396098#1 356396098#2 356396098#3 356396098#5 356396098#6 356396090 356396091 927304029 356396083 926810387 285776274 285776275#0 285776275#1 471664573 226319817#0 226319817#1 226319817#3 226319817#4 226319817#5 226319817#6 226319817#7 226319817#8 226319817#9 356396099 618007936 618007942 68911216 451653051 356396100#0 356396100#1 470020245#0 470020245#1 189381380 786581777#0 786581777#1 786581777#2 68915542#0 68915542#1 785755603 785755587">
        <stop busStop="P1_Mercado_Publico" duration="60.00"/>
        <stop busStop="P1_Borges" duration="20.00"/>
        <stop busStop="P2_Borges" duration="20.00"/>
        <stop busStop="P3_Borges" duration="20.00"/>
        <stop busStop="P4_Borges" duration="20.00"/>
        <stop busStop="P1_Padre_Cacique" duration="20.00"/>
        <stop busStop="P2_Padre_Cacique" duration="20.00"/>
        <stop busStop="P3_Padre_Cacique" duration="20.00"/>
        <stop busStop="P1_Icarai" duration="20.00"/>
    </route>

    <vehicle id="BRT1" type="pt2_bus" route="Salgado-PadreCacique" depart="601.4522129452603" line="bus">
    </vehicle>
    <vehicle id="BRT2" type="pt2_bus" route="Mercado-Publico" depart="1002.4359916730483" line="bus2">
    </vehicle>
    <vehicle id="BRT3" type="pt2_bus" route="Salgado-PadreCacique" depart="1403.419007834255" line="bus">
    </vehicle>
    <vehicle id="BRT4" type="pt2_bus" route="Mercado-Publico" depart="1804.4359026622344" line="bus2">
    </vehicle>
    <vehicle id="BRT5" type="pt2_bus" route="Salgado-PadreCacique" depart="2205.3521890538677" line="bus">
    </vehicle>
    <vehicle id="BRT6" type="pt2_bus" route="Mercado-Publico" depart="2606.354986425351" line="bus2">
    </vehicle>
    <vehicle id="BRT7" type="pt2_bus" route="Salgado-PadreCacique" depart="2995.0949694683322" line="bus">
    </vehicle>
    <vehicle id="BRT8" type="pt2_bus" route="Mercado-Publico" depart="3408.302220025476" line="bus2">
    </vehicle>
    <vehicle id="BRT9" type="pt2_bus" route="Salgado-PadreCacique" depart="3809.238390488533" line="bus">
    </vehicle>
     <vehicle id="BRT10" type="pt2_bus" route="Mercado-Publico" depart="4210.174912177066" line="bus2">
    </vehicle>
     <vehicle id="BRT11" type="pt2_bus" route="Salgado-PadreCacique" depart="4611.149753700584" line="bus">
    </vehicle>
     <vehicle id="BRT12" type="pt2_bus" route="Mercado-Publico" depart="5002.0153035424055" line="bus2">
    </vehicle>
    <vehicle id="BRT13" type="pt2_bus" route="Salgado-PadreCacique" depart="5413.206918809592" line="bus">
    </vehicle>
    <vehicle id="BRT14" type="pt2_bus" route="Mercado-Publico" depart="5808.7895222079505" line="bus2">
    </vehicle>
    <vehicle id="BRT15" type="pt2_bus" route="Salgado-PadreCacique" depart="6186.851733094731" line="bus">
    </vehicle>
    <vehicle id="BRT16" type="pt2_bus" route="Mercado-Publico" depart="6616.082664977814" line="bus2">
    </vehicle>
    <vehicle id="BRT17" type="pt2_bus" route="Salgado-PadreCacique" depart="7017.02358686315" line="bus">
    </vehicle>
    <vehicle id="BRT18" type="pt2_bus" route="Mercado-Publico" depart="7423.00212618345" line="bus2">
    </vehicle>
    <vehicle id="BRT19" type="pt2_bus" route="Salgado-PadreCacique" depart="7818.634875108132" line="bus">
    </vehicle>
    <vehicle id="BRT20" type="pt2_bus" route="Mercado-Publico" depart="8220.042679681083" line="bus2">
    </vehicle>
    <vehicle id="BRT21" type="pt2_bus" route="Salgado-PadreCacique" depart="8621.164045044225" line="bus">
    </vehicle>
    <vehicle id="BRT22" type="pt2_bus" route="Mercado-Publico" depart="9021.82569109902" line="bus2">
    </vehicle>
     <vehicle id="BRT23" type="pt2_bus" route="Salgado-PadreCacique" depart="9391.486945153196" line="bus">
    </vehicle>
     <vehicle id="BRT24" type="pt2_bus" route="Mercado-Publico" depart="9823.953406357963" line="bus2">
    </vehicle>
    <vehicle id="BRT25" type="pt2_bus" route="Salgado-PadreCacique" depart="10224.876287983414" line="bus">
    </vehicle>
    <vehicle id="BRT26" type="pt2_bus" route="Mercado-Publico" depart="10625.867811594373" line="bus2">
    </vehicle>
    <vehicle id="BRT27" type="pt2_bus" route="Salgado-PadreCacique" depart="11026.886485410138" line="bus">
    </vehicle>
    <vehicle id="BRT28" type="pt2_bus" route="Mercado-Publico" depart="11427.864173658983" line="bus2">
    </vehicle>
    <vehicle id="BRT29" type="pt2_bus" route="Salgado-PadreCacique" depart="11828.938805043714" line="bus">
    </vehicle>
    <vehicle id="BRT30" type="pt2_bus" route="Mercado-Publico" depart="12176.841527133847" line="bus2">
    </vehicle>
    <vehicle id="BRT31" type="pt2_bus" route="Salgado-PadreCacique" depart="12581.69177622511" line="bus">
    </vehicle>
    <vehicle id="BRT32" type="pt2_bus" route="Mercado-Publico" depart="13009.953345012811" line="bus2">
    </vehicle>
    <vehicle id="BRT33" type="pt2_bus" route="Salgado-PadreCacique" depart="13432.752625520858" line="bus">
    </vehicle>
     <vehicle id="BRT34" type="pt2_bus" route="Mercado-Publico" depart="13834.094741598215" line="bus2">
    </vehicle>
     <vehicle id="BRT35" type="pt2_bus" route="Salgado-PadreCacique" depart="14234.708004071574" line="bus">
    </vehicle>
     <vehicle id="BRT36" type="pt2_bus" route="Mercado-Publico" depart="14635.685691132107" line="bus2">
    </vehicle>
    <vehicle id="BRT37" type="pt2_bus" route="Salgado-PadreCacique" depart="14980.010054190068" line="bus">
    </vehicle>
    <vehicle id="BRT38" type="pt2_bus" route="Mercado-Publico" depart="15353.65613804025" line="bus2">
    </vehicle>
    <vehicle id="BRT39" type="pt2_bus" route="Salgado-PadreCacique" depart="16164.918380830146" line="bus">
    </vehicle>
    <vehicle id="BRT40" type="pt2_bus" route="Mercado-Publico" depart="16220.368303662552" line="bus2">
    </vehicle>
    <vehicle id="BRT41" type="pt2_bus" route="Salgado-PadreCacique" depart="16640.574141403333" line="bus">
    </vehicle>
    <vehicle id="BRT42" type="pt2_bus" route="Mercado-Publico" depart="17031.87838492698" line="bus2">
    </vehicle>
    <vehicle id="BRT43" type="pt2_bus" route="Salgado-PadreCacique" depart="17402.299619532605" line="bus">
    </vehicle>
    <vehicle id="BRT44" type="pt2_bus" route="Mercado-Publico" depart="17337.230052408882" line="bus2">
    </vehicle>
    <vehicle id="BRT45" type="pt2_bus" route="Salgado-PadreCacique" depart="18153.711279085823" line="bus">
    </vehicle>
    <vehicle id="BRT46" type="pt2_bus" route="Mercado-Publico" depart="18556.09455538381" line="bus2">
    </vehicle>
     <vehicle id="BRT47" type="pt2_bus" route="Salgado-PadreCacique" depart="18956.01552155706" line="bus">
    </vehicle>
    <vehicle id="BRT48" type="pt2_bus" route="Mercado-Publico" depart="19346.835281007276" line="bus2">
    </vehicle>  
 <!--   <vehicle id="BRT49" type="pt2_bus" route="Salgado-PadreCacique" depart="12120.0" line="bus">
    </vehicle>
    <vehicle id="BRT50" type="pt2_bus" route="Mercado-Publico" depart="12360.0" line="bus2">
    </vehicle>
    <vehicle id="BRT51" type="pt2_bus" route="Salgado-PadreCacique" depart="12600.0" line="bus">
    </vehicle>
    <vehicle id="BRT52" type="pt2_bus" route="Mercado-Publico" depart="12840.0" line="bus2">
    </vehicle>
    <vehicle id="BRT53" type="pt2_bus" route="Salgado-PadreCacique" depart="13080.0" line="bus">
    </vehicle>
    <vehicle id="BRT54" type="pt2_bus" route="Mercado-Publico" depart="13320.0" line="bus2">
    </vehicle>
    <vehicle id="BRT55" type="pt2_bus" route="Salgado-PadreCacique" depart="13560.0" line="bus">
    </vehicle>
    <vehicle id="BRT56" type="pt2_bus" route="Mercado-Publico" depart="13800.0" line="bus2">
    </vehicle>
    <vehicle id="BRT57" type="pt2_bus" route="Salgado-PadreCacique" depart="14040.0" line="bus">
    </vehicle>
     <vehicle id="BRT58" type="pt2_bus" route="Mercado-Publico" depart="14280.0" line="bus2">
    </vehicle>
     <vehicle id="BRT59" type="pt2_bus" route="Salgado-PadreCacique" depart="14520.0" line="bus">
    </vehicle>
     <vehicle id="BRT60" type="pt2_bus" route="Mercado-Publico" depart="14760.0" line="bus2">
    </vehicle>
    <vehicle id="BRT61" type="pt2_bus" route="Salgado-PadreCacique" depart="15000.0" line="bus">
    </vehicle>
    <vehicle id="BRT62" type="pt2_bus" route="Mercado-Publico" depart="15240.0" line="bus2">
    </vehicle>
    <vehicle id="BRT63" type="pt2_bus" route="Salgado-PadreCacique" depart="15480.0" line="bus">
    </vehicle>
    <vehicle id="BRT64" type="pt2_bus" route="Mercado-Publico" depart="15720.0" line="bus2">
    </vehicle>
    <vehicle id="BRT65" type="pt2_bus" route="Salgado-PadreCacique" depart="15960.0" line="bus">
    </vehicle>
    <vehicle id="BRT66" type="pt2_bus" route="Mercado-Publico" depart="16200.0" line="bus2">
    </vehicle>
    <vehicle id="BRT67" type="pt2_bus" route="Salgado-PadreCacique" depart="16440.0" line="bus">
    </vehicle>
    <vehicle id="BRT68" type="pt2_bus" route="Mercado-Publico" depart="16680.0" line="bus2">
    </vehicle>
    <vehicle id="BRT69" type="pt2_bus" route="Salgado-PadreCacique" depart="16920.0" line="bus">
    </vehicle>
    <vehicle id="BRT70" type="pt2_bus" route="Mercado-Publico" depart="17160.0" line="bus2">
    </vehicle>
     <vehicle id="BRT71" type="pt2_bus" route="Salgado-PadreCacique" depart="17400.0" line="bus">
    </vehicle>
     <vehicle id="BRT72" type="pt2_bus" route="Mercado-Publico" depart="17640.0" line="bus2">
    </vehicle>
    <vehicle id="BRT73" type="pt2_bus" route="Salgado-PadreCacique" depart="17880.0" line="bus">
    </vehicle>
    <vehicle id="BRT74" type="pt2_bus" route="Mercado-Publico" depart="18120.0" line="bus2">
    </vehicle>
    <vehicle id="BRT75" type="pt2_bus" route="Salgado-PadreCacique" depart="18360.0" line="bus">
    </vehicle>
    <vehicle id="BRT76" type="pt2_bus" route="Mercado-Publico" depart="18600.0" line="bus2">
    </vehicle>
    <vehicle id="BRT77" type="pt2_bus" route="Salgado-PadreCacique" depart="18840.0" line="bus">
    </vehicle>
    <vehicle id="BRT78" type="pt2_bus" route="Mercado-Publico" depart="19080.0" line="bus2">
    </vehicle>
    <vehicle id="BRT79" type="pt2_bus" route="Salgado-PadreCacique" depart="19320.0" line="bus">
    </vehicle>
    <vehicle id="BRT80" type="pt2_bus" route="Mercado-Publico" depart="19560.0" line="bus2">
    </vehicle>
    <vehicle id="BRT81" type="pt2_bus" route="Salgado-PadreCacique" depart="19800.0" line="bus">
    </vehicle>
     <vehicle id="BRT82" type="pt2_bus" route="Mercado-Publico" depart="20040.0" line="bus2">
    </vehicle>
     <vehicle id="BRT83" type="pt2_bus" route="Salgado-PadreCacique" depart="20280.0" line="bus">
    </vehicle>
     <vehicle id="BRT84" type="pt2_bus" route="Mercado-Publico" depart="20520.0" line="bus2">
    </vehicle>
    <vehicle id="BRT85" type="pt2_bus" route="Salgado-PadreCacique" depart="20760.0" line="bus">
    </vehicle>
    <vehicle id="BRT86" type="pt2_bus" route="Mercado-Publico" depart="21000.0" line="bus2">
    </vehicle>
    <vehicle id="BRT87" type="pt2_bus" route="Salgado-PadreCacique" depart="21240.0" line="bus">
    </vehicle>
    <vehicle id="BRT88" type="pt2_bus" route="Mercado-Publico" depart="21480.0" line="bus2">
    </vehicle>
    <vehicle id="BRT89" type="pt2_bus" route="Salgado-PadreCacique" depart="21720.0" line="bus">
    </vehicle>
    <vehicle id="BRT90" type="pt2_bus" route="Mercado-Publico" depart="21960.0" line="bus2">
    </vehicle>
    <vehicle id="BRT91" type="pt2_bus" route="Salgado-PadreCacique" depart="22200.0" line="bus">
    </vehicle>
    <vehicle id="BRT92" type="pt2_bus" route="Mercado-Publico" depart="22440.0" line="bus2">
    </vehicle>
    <vehicle id="BRT93" type="pt2_bus" route="Salgado-PadreCacique" depart="22680.0" line="bus">
    </vehicle>
    <vehicle id="BRT94" type="pt2_bus" route="Mercado-Publico" depart="22920.0" line="bus2">
    </vehicle>
    <vehicle id="BRT95" type="pt2_bus" route="Salgado-PadreCacique" depart="23160.0" line="bus">
    </vehicle>
    <vehicle id="BRT96" type="pt2_bus" route="Mercado-Publico" depart="23400.0" line="bus2">
    </vehicle>  -->    
    <personFlow id="personFlow_0" begin="0" end="1800" number="183">
        <walk from="612442387" busStop="P1_Salgado"/>
        <ride busStop="P1_Icarai" lines="bus"/>
        <walk to="785755603"/> 
    </personFlow>
    <personFlow id="personFlow_0.1" begin="0" end="1800" number="183">
        <walk from="287533442#3" busStop="P1_Mercado_Publico"/>
        <ride busStop="P1_Icarai" lines="bus2"/>
        <walk to="785755603"/> 
    </personFlow>    
    <personFlow id="personFlow_1" begin="1800" end="3600" number="339">
        <walk from="612442387" busStop="P1_Salgado"/>
        <ride busStop="P1_Icarai" lines="bus"/>
        <walk to="785755603"/> 
    </personFlow>
    <personFlow id="personFlow_1.1" begin="1800" end="3600" number="339">
        <walk from="287533442#3" busStop="P1_Mercado_Publico"/>
        <ride busStop="P1_Icarai" lines="bus2"/>
        <walk to="785755603"/> 
    </personFlow>
    <personFlow id="personFlow_2" begin="3600" end="5400" number="348">
        <walk from="612442387" busStop="P1_Salgado"/>
        <ride busStop="P1_Icarai" lines="bus"/>
        <walk to="785755603"/> 
    </personFlow>
    <personFlow id="personFlow_2.1" begin="3600" end="5400" number="348">
        <walk from="287533442#3" busStop="P1_Mercado_Publico"/>
        <ride busStop="P1_Icarai" lines="bus2"/>
        <walk to="785755603"/> 
    </personFlow>
    <personFlow id="personFlow_3" begin="5400" end="7200" number="488">
        <walk from="612442387" busStop="P1_Salgado"/>
        <ride busStop="P1_Icarai" lines="bus"/>
        <walk to="785755603"/> 
    </personFlow>
    <personFlow id="personFlow_3.1" begin="5400" end="7200" number="488">
        <walk from="287533442#3" busStop="P1_Mercado_Publico"/>
        <ride busStop="P1_Icarai" lines="bus2"/>
        <walk to="785755603"/> 
    </personFlow>
    <personFlow id="personFlow_4" begin="7200" end="9000" number="377">
        <walk from="612442387" busStop="P1_Salgado"/>
        <ride busStop="P1_Icarai" lines="bus"/>
        <walk to="785755603"/> 
    </personFlow>
        <personFlow id="personFlow_4.1" begin="7200" end="9000" number="377">
        <walk from="287533442#3" busStop="P1_Mercado_Publico"/>
        <ride busStop="P1_Icarai" lines="bus2"/>
        <walk to="785755603"/> 
    </personFlow>
    <personFlow id="personFlow_5" begin="9000" end="10800" number="318">
        <walk from="612442387" busStop="P1_Salgado"/>
        <ride busStop="P1_Icarai" lines="bus"/>
        <walk to="785755603"/> 
    </personFlow>
    <personFlow id="personFlow_5.1" begin="9000" end="10800" number="318">
        <walk from="287533442#3" busStop="P1_Mercado_Publico"/>
        <ride busStop="P1_Icarai" lines="bus2"/>
        <walk to="785755603"/> 
    </personFlow>
    <personFlow id="personFlow_6" begin="10800" end="12600" number="219">
        <walk from="612442387" busStop="P1_Salgado"/>
        <ride busStop="P1_Icarai" lines="bus"/>
        <walk to="785755603"/> 
    </personFlow>
    <personFlow id="personFlow_6.1" begin="10800" end="12600" number="219">
        <walk from="287533442#3" busStop="P1_Mercado_Publico"/>
        <ride busStop="P1_Icarai" lines="bus2"/>
        <walk to="785755603"/> 
    </personFlow>
    <personFlow id="personFlow_7" begin="12600" end="14400" number="249">
        <walk from="612442387" busStop="P1_Salgado"/>
        <ride busStop="P1_Icarai" lines="bus"/>
        <walk to="785755603"/> 
    </personFlow>
    <personFlow id="personFlow_7.1" begin="12600" end="14400" number="249">
        <walk from="287533442#3" busStop="P1_Mercado_Publico"/>
        <ride busStop="P1_Icarai" lines="bus2"/>
        <walk to="785755603"/> 
    </personFlow>
    <personFlow id="personFlow_8" begin="14400" end="16200" number="164">
        <walk from="612442387" busStop="P1_Salgado"/>
        <ride busStop="P1_Icarai" lines="bus"/>
        <walk to="785755603"/> 
    </personFlow>
    <personFlow id="personFlow_8.1" begin="14400" end="16200" number="164">
        <walk from="287533442#3" busStop="P1_Mercado_Publico"/>
        <ride busStop="P1_Icarai" lines="bus2"/>
        <walk to="785755603"/> 
    </personFlow>








    <!-- <personFlow id="personFlow_3" begin="0" end="1200" number="200">
        <walk from="244765838" busStop="P1_Ponte_Pedra"/>
        <ride busStop="P1_Icarai" lines="bus"/>
        <walk to="785755603"/> 
    </personFlow>
    <personFlow id="personFlow_4" begin="0" end="1300" number="200">
        <walk from="451652908#2" busStop="P1_Borges"/>
        <ride busStop="P1_Icarai" lines="bus"/>
        <walk to="785755603"/> 
    </personFlow>
    <personFlow id="personFlow_5" begin="0" end="1400" number="200">
        <walk from="927790174#1" busStop="P2_Borges"/>
        <ride busStop="P1_Icarai" lines="bus"/>
        <walk to="785755603"/> 
    </personFlow>
    <personFlow id="personFlow_6" begin="0" end="1500" number="200">
        <walk from="112414431#0" busStop="P3_Borges"/>
        <ride busStop="P1_Icarai" lines="bus"/>
        <walk to="785755603"/> 
    </personFlow>
    <personFlow id="personFlow_7" begin="0" end="1600" number="100">
        <walk from="108664532#1" busStop="P4_Borges"/>
        <ride busStop="P1_Icarai" lines="bus"/>
        <walk to="785755603"/> 
    </personFlow> -->
</routes>